69
Coordinates from ORCA-job gbm_co2_bridge_parallel_wB97x_d3_TZVP
  C   3.90169100901819     -4.26939496434992      0.00785097496959
  C   2.48077103608271     -4.27486528183616      0.00068832984471
  C   1.77105731809134     -5.50585018860377      0.00780187940598
  C   2.49585652013483     -6.70396477297892      0.02102064518803
  C   3.88319196987469     -6.69147195983740      0.02734534104863
  C   4.58234577494696     -5.49312738685487      0.02107470693901
  C   1.76847375822626     -3.04744481383945     -0.01320462655339
  C   0.35208255238889     -3.05201241197147     -0.01916405680905
  C   -0.35891859461498     -4.30728152320351     -0.00998863884499
  C   0.34346485333797     -5.48170938388385      0.00232437921126
  C   -0.35353577751408     -1.84121876175650     -0.03126856147886
  C   -1.78717727656728     -1.83436966043121     -0.03034921650155
  C   -2.49404218957731     -3.10504191534632     -0.02073989117118
  C   -1.80242372911106     -4.27000672621647     -0.01230864645021
  C   -2.47931611376569     -0.64167788175059     -0.03031148332407
  C   -3.93328138223690     -0.62498546383201     -0.02067699712467
  C   -4.62218726950718     -1.90826054626448     -0.01784271985146
  C   -3.95003072270556     -3.06650169344695     -0.01788200221474
  C   4.58901202408782     -3.01792441735297      0.00240094628736
  C   3.91780156879516     -1.82540562211999     -0.00992625958211
  C   2.47515595483065     -1.81994369266017     -0.01911931650109
  C   1.77397777260455     -0.60657204014872     -0.03124391392186
  C   0.35507137332020     -0.61191842692070     -0.03717303076343
  C   -0.35508448742360      0.61180934219652     -0.03721979453986
  C   -1.77399031079459      0.60646131646465     -0.03127592106569
  C   -2.47516790152231      1.81983176187958     -0.01917998607585
  C   -3.91781249952305      1.82529514766015     -0.00993345038250
  C   -4.60161961065416      0.55348884952730     -0.01221637521558
  C   4.60161377980137     -0.55359976965279     -0.01227720124522
  C   3.93327645539925      0.62487608342637     -0.02076283356253
  C   2.47931210462231      0.64156608315669     -0.03037317419125
  C   1.78716498909368      1.83425290999925     -0.03044746045841
  C   0.35352448893800      1.84110472515843     -0.03137312600212
  C   -0.35209376405757      3.05190103504398     -0.01927790488238
  C   -1.76848522004281      3.04733383433370     -0.01330144309978
  C   -2.48078088491083      4.27475447145914      0.00058842514669
  C   -3.90170138674762      4.26928486262529      0.00777996018435
  C   -4.58902413263472      3.01781389190911      0.00237339628140
  C   4.62217585235557      1.90815300309966     -0.01799972591506
  C   3.95001567162048      3.06639198392550     -0.01805856735725
  C   2.49402814411014      3.10492650971175     -0.02088858836878
  C   1.80240980803272      4.26989156052430     -0.01247319358208
  C   0.35890662574528      4.30717091835457     -0.01013277514960
  C   -0.34347525644895      5.48160050087487      0.00217938692750
  C   -1.77106751220813      5.50573997086783      0.00767873248732
  C   -2.49586596501572      6.70385539170675      0.02088555121778
  C   -3.88320107927881      6.69136222331557      0.02722847569728
  C   -4.58235511648407      5.49301755752574      0.02098816860868
  H   1.95840913855442     -7.64665252326520      0.02643505829297
  H   4.42760959121761     -7.62960142196762      0.03757403022522
  H   5.66747631048742     -5.49419998462215      0.02652670222776
  H   -0.19083779037149     -6.42713538414779      0.00916817329062
  H   -2.33752308487786     -5.21506172985367     -0.00434527777935
  H   -5.70744782057342     -1.89825067484380     -0.01358250847931
  H   -4.47977543753337     -4.01374078871654     -0.01366334866594
  H   5.67495957352032     -3.02308873636126      0.00928243656206
  H   -5.68764069646168      0.55777491566118     -0.00422509042321
  H   5.68763472252295     -0.55788554279516     -0.00431940834615
  H   -5.67497129777133      3.02297688590690      0.00928527114725
  H   5.70743677350197      1.89814649083660     -0.01377810707834
  H   4.47975670244250      4.01363313636753     -0.01387597733755
  H   2.33750719298120      5.21494823596215     -0.00454216984631
  H   0.19082763009170      6.42702618275972      0.00900488741414
  H   -1.95841923173015      7.64654345617232      0.02628587557551
  H   -4.42761899610720      7.62949173536699      0.03744536390039
  H   -5.66748560449348      5.49409130104869      0.02645984654379
  C   0.00012175305012      0.00134700752538      3.12060351384835
  O   1.00294568956994      0.58287648009551      3.12848922741130
  O   -1.00270534013223     -0.58018267061732      3.12790308425780
