15
Coordinates from ORCA-job gbm_co2_hollow_parallel_pbe_d3_TZVP
  C   0.69829122017882      1.21010331343814     -0.07822745948138
  C   -0.69742112984278      1.20957015974559     -0.07869630952352
  C   -1.39550631694864      0.00095450723433     -0.07671323101125
  C   -0.69774034516809     -1.20730382293698     -0.07400806022026
  C   0.69799910329535     -1.20674797389770     -0.07353462994229
  C   1.39604863929007      0.00186470565562     -0.07551599557584
  H   1.24090621998924      2.14976160629499     -0.07760371147163
  H   -1.24018949642480      2.14943124246939     -0.08193393086383
  H   -2.48058548529122      0.00062683043695     -0.07503647156711
  H   -1.24036057157858     -2.14695748212999     -0.07038245939409
  H   1.24077156503479     -2.14661600659477     -0.07270930637803
  H   2.48112034937542      0.00220028879699     -0.07293331911809
  C   -0.00116394718101     -0.00614270086567      3.32111601282308
  O   1.00676312103205      0.57564688704793      3.32284020719408
  O   -1.00900851906103     -0.58786596847840      3.33945812876625
