15
Coordinates from ORCA-job gbm_co2_bridge_orthogonal_pbe_d3_TZVP
  C   0.70923347266922      1.20349218177733     -0.07593052092527
  C   -0.68729454593825      1.20306618695395     -0.09391965314070
  C   -1.38546680484838     -0.00644779540873     -0.09403873090569
  C   -0.68735735929052     -1.21595937170066     -0.07577139821791
  C   0.70956025953428     -1.21600733448046     -0.05710590429204
  C   1.40795652863945     -0.00613289908263     -0.05803902710018
  H   1.25485821264674      2.14878348663856     -0.07591527018894
  H   -1.23322753497007      2.14795223378754     -0.10687065664880
  H   -2.47672878681341     -0.00628834794051     -0.10699824705337
  H   -1.23303149464719     -2.16122244994171     -0.07532412570470
  H   1.25526424599083     -2.16117062394697     -0.04312625213774
  H    2.49934927262042     -0.00595532093458     -0.04444959736200
  C   -1.09523692605786      0.63196920506051      4.53340298325587
  O   -1.08080017214842      0.62378380467924      3.36277777480888
  O   -1.11099106612997      0.64098368683837      5.70528970102343
