15
Coordinates from ORCA-job gbm_co2_hollow_orthogonal_pbe_d3_TZVP
  C   0.69827561075714      1.20969142621263     -0.06289954240754
  C   -0.69848322215387      1.20955118011028     -0.06291950471509
  C   -1.39674058047490     -0.00015661394686     -0.06290819542330
  C   -0.69822702941858     -1.20970737209028     -0.06287575679441
  C   0.69854032816220     -1.20956661340244     -0.06284895960741
  C   1.39679406378034      0.00013354431303     -0.06286087506581
  H   1.24389927298691      2.15496878243946     -0.06224475984697
  H   -1.24430031229003      2.15471615437358     -0.06228715243092
  H   -2.48818637756410     -0.00027475525590     -0.06226580931316
  H   -1.24384811678615     -2.15498612068164     -0.06220270102645
  H   1.24435385822955     -2.15473368810972     -0.06215500453026
  H   2.48823980880259      0.00025553071857     -0.06217850246417
  C   -0.00004387735340      0.00001733580826      4.47055088290422
  O   -0.00002423759941      0.00001024616490      3.30008468411275
  O   -0.00006440279962      0.00002476753260      5.64289901287858
