15
Coordinates from ORCA-job gbm_co2_hollow_parallel_pbe_d3_TZVP
  C   0.69900656616844      1.21123819194040     -0.09251405021718
  C   -0.69829783297842      1.21081933988460     -0.09299635459243
  C   -1.39710991773353      0.00076812918267     -0.09147607048087
  C   -0.69850832892778     -1.20894175129083     -0.08938694371516
  C   0.69884039070440     -1.20847326038204     -0.08889869651892
  C   1.39758687572119      0.00157690012031     -0.09041821575896
  H   1.24477909676996      2.15611182555029     -0.08753362795754
  H   -1.24412776730179      2.15597351086929     -0.09330303701515
  H   -2.48827915657964      0.00030828604972     -0.08581128436114
  H   -1.24428455476491     -2.15379996477407     -0.08213653902747
  H   1.24466500519432     -2.15362795514178     -0.08602312246038
  H   2.48874784485376      0.00205035967229     -0.08384908254175
  C   -0.00104283744349     -0.00510313074927      3.37921968503517
  O   1.01317922892574      0.58031320173347      3.38066176100627
  O   -1.01521031210436     -0.59045327474266      3.39541578297692
