16
Coordinates from ORCA-job gbm_co2_hollow_parallel_b3lyp_d3_TZVP
  C   0.69589888271006      1.20587619275840     -0.08092965311527
  C   -0.69510661960275      1.20542438612457     -0.08143083642421
  C   -1.39076355633004      0.00083986211394     -0.07961603247821
  C   -0.69538034182273     -1.20328863844187     -0.07719358879245
  C   0.69565324600565     -1.20281291477270     -0.07668676737947
  C   1.39127190338789      0.00176943095286     -0.07850095780907
  H   1.23738673505314      2.14330052388662     -0.07493928935500
  H   -1.23666029626606      2.14317539922676     -0.08133603481909
  H   -2.47334017806139      0.00037094321780     -0.07277545518079
  H   -1.23686970559242     -2.14069371277433     -0.06849153169226
  H   1.23720772207178     -2.14055698477904     -0.07291873483349
  H   2.47383456114390      0.00226270344150     -0.07063367867767
  C   -0.00108540370647     -0.00569930303353      3.32514187259910
  O   1.00326147528791      0.57395340504150      3.32673504578373
  O   -1.00536636250064     -0.58529278487039      3.34263699663654
   X  0.00027570822218      0.00130414190793     -0.07905936446242
