15
Coordinates from ORCA-job gbm_co2_top_parallel_b3lyp_d3_TZVP
  C   0.69165493088849      1.19817868226681     -0.06925998737315
  C   -0.69945157740877      1.19844814679653     -0.06085341454924
  C   -1.39402461156061     -0.00589088441836     -0.03431199186875
  C   -0.69812764023353     -1.20952422805088     -0.01994819669561
  C   0.69219706322906     -1.21011093533862     -0.03423655285081
  C   1.38766736943276     -0.00628971379976     -0.06078818571599
  H   1.23285740402122      2.13576512109161     -0.08646278740846
  H   -1.24026824157617      2.13657916144024     -0.07202099112508
  H   -2.47670346789504     -0.00638445186366     -0.02280732503616
  H   -1.23924627774920     -2.14696667820348      0.00519123767332
  H   1.23328668069647     -2.14788174868688     -0.02267553435388
  H   2.47052135587672     -0.00537806516123     -0.07190245360624
  C   0.71125532216832      1.23231010298942      3.17305977639545
  O   1.29147958622328      2.23776555642159      3.15896808493753
  O   0.13254822388697      0.22950180451665      3.21800801157707
