40
Coordinates from ORCA-job gbm_co2_hollow_parallel_wB97X_d3_TZVP
  C   0.70970523637028      1.28745922198137     -0.06902003489567
  C   -0.71680550877972      1.28347315160865     -0.06924495394926
  C   -1.42664129423275      0.04669768219507     -0.04228813021569
  C   -0.70994586208874     -1.18617829513410     -0.01509885221230
  C   0.71666805854619     -1.18217537036115     -0.01488424997461
  C   1.42643976602885      0.05468173426341     -0.04183458377550
  C   -1.42254005024458      2.49780624862747     -0.08717416425287
  C   -2.84610868751774      2.46729206175102     -0.07881961578177
  C   -3.52300900063306      1.28678239105156     -0.04953353056168
  C   -2.83045555608152      0.04297323953979     -0.02811262388967
  C   1.40861460499736      2.50573128743093     -0.08668432198036
  C   0.67019702753141      3.72318862410549     -0.10960075065377
  C   -0.69095500089482      3.71938645518283     -0.10983621755884
  C   2.83023307885309      0.05884809338719     -0.02719410150468
  C   3.51581194107257      1.30651268935254     -0.04834742646832
  C   2.83232653207110      2.48321386901631     -0.07783390497717
  C   1.42233528145513     -2.39575521511832      0.03096892015724
  C   2.84592407020646     -2.36491527212860      0.04334497962016
  C   3.52265740802092     -1.18470848358105      0.01476022364293
  C   -1.40882246942386     -2.40370155029491      0.03046904454565
  C   -0.67058862912848     -3.62039732559660      0.07150286611817
  C   0.69092021167992     -3.61657288652999      0.07175532114732
  C   -3.51589765317714     -1.20445478059529      0.01351633263366
  C   -2.83256025582675     -2.38084853494072      0.04229074017445
  H   -3.38622066614517      3.40865614143819     -0.09330926832458
  H   -4.60829290620264      1.27746112910913     -0.03945202767893
  H   1.21564103790126      4.66147009958993     -0.12507017252305
  H   -1.24164139518909      4.65459570322002     -0.12554925642863
  H   4.60112804130158      1.30327205652119     -0.03787461768797
  H   3.36715120761429      3.42759457657365     -0.09210288517019
  H   3.38579587630660     -3.30579758363393      0.07920463197015
  H   4.60789254004968     -1.17485735629039      0.02764654491884
  H   -1.21600212161895     -4.55817877054382      0.10584633607352
  H   1.24156431754443     -4.55128735567563      0.10629026362087
  H   -4.60117525550411     -1.20070684295404      0.02597956937352
  H   -3.36715412310593     -3.32474694028563      0.07789579835940
  C   0.00128603931571     -0.63110335096009      3.25206798857671
  O   1.16047206889593     -0.62065584062071      3.25374742342077
  O   -1.15786573020830     -0.64074594260538      3.26363074539016
   -  -0.00009317975941      0.05068924190460     -0.04206103927802
