39
Coordinates from ORCA-job gbm_co2_top_orthogonal_wB97X_d3_TZVP
  C   0.71305839092770      1.23347864699850     -0.02604638459222
  C   -0.71252264917257      1.23376228095860     -0.01968702440574
  C   -1.42603107248338     -0.00107244589961     -0.01529860068250
  C   -0.71310718546115     -1.23645338845967     -0.01572020357619
  C   0.71323604098016     -1.23630338758053     -0.01630958237190
  C   1.42598812551346     -0.00102581712317     -0.02071721590668
  C   -1.41473550843987      2.44983222194035     -0.01017339397024
  C   -2.83857919143078      2.42367796673648     -0.00203810823223
  C   -3.51955726813356      1.24512498359055     -0.00150789064639
  C   -2.83051158232853     -0.00115664483079     -0.00727703566896
  C   1.41498949265469      2.44911986693084     -0.02128589837999
  C   0.68095275186353      3.66912917250015     -0.01314467691629
  C   -0.68011708495430      3.66975556530466     -0.00732191629230
  C   2.83026612697589     -0.00126256356537     -0.01241710696824
  C   3.51955870708336      1.24483058631745     -0.00975016038597
  C   2.83857653263621      2.42329954710066     -0.01446605836098
  C   1.41529116661984     -2.45272004953587     -0.00933496935406
  C   2.83913898614605     -2.42644352916585     -0.00468644270004
  C   3.51942065229331     -1.24749032348236     -0.00533049909280
  C   -1.41538425000193     -2.45271881044125     -0.01002492003053
  C   -0.68066994078339     -3.67268092703340     -0.00647208360393
  C   0.68045365502865     -3.67262053105883     -0.00563363094247
  C   -3.51966514678062     -1.24743531064432     -0.00362285483466
  C   -2.83925986926468     -2.42629043983923     -0.00545381485878
  H   -3.37568873211534      3.36693849728214      0.00359396893998
  H   -4.60497783887819      1.23902417663726      0.00410059133042
  H   1.22947273243249      4.60583242819614     -0.00999371142457
  H   -1.22815704321338      4.60669653783511     -0.00036803117878
  H   4.60499831194598      1.23858720345785     -0.00382130309907
  H   3.37561705081529      3.36663145633476     -0.01143723605700
  H   3.37648160685171     -3.36954770971877      0.00013186121936
  H   4.60486768291887     -1.24111474563227     -0.00059758264730
  H   -1.22882008752049     -4.60954366710827     -0.00324571232094
  H   1.22858788634791     -4.60950085240520     -0.00170002777129
  H   -4.60509096234969     -1.24108914805488      0.00109372060201
  H   -3.37661840873931     -3.36938459778905     -0.00224757242655
  C   0.71215140893385      1.25106024034286      4.29552666222101
  O   0.71268654102633      1.24691820216592      3.13712693982623
  O   0.71241497205589      1.25676930873842      5.45555690556059
