40
Coordinates from ORCA-job gbm_co2_hollow_orthogonal_wB97X_d3_TZVP
  C   0.71295215540021      1.23495346116658     -0.01045363206944
  C   -0.71302430515688      1.23491171283183     -0.01045369840081
  C   -1.42596105976450     -0.00003783107055     -0.01045065243114
  C   -0.71295210310625     -1.23494575951027     -0.01044756137036
  C   0.71302424855688     -1.23490397518382     -0.01044749523481
  C   1.42596108244919      0.00004558431419     -0.01045051945352
  C   -1.41516623078780      2.45097650515592     -0.00289904679120
  C   -2.83909745566021      2.42485022981579      0.00217123148725
  C   -3.51960081104209      1.24609937734937      0.00217010189184
  C   -2.83018628942420     -0.00007885578839     -0.00289762099701
  C   1.41502296029014      2.45105931520453     -0.00289913639268
  C   0.68043363534105      3.67115472772196      0.00217629209319
  C   -0.68064830084941      3.67111488768197      0.00217634052821
  C   2.83018629732349      0.00008665293784     -0.00289742977978
  C   3.51952794061331      1.24630519848708      0.00216993962263
  C   2.83895571848750      2.42501629101607      0.00217098040718
  C   1.41516619765174     -2.45096868699179     -0.00288587087283
  C   2.83909743074834     -2.42484239897373      0.00218466540252
  C   3.51960081290790     -1.24609157025080      0.00217714503280
  C   -1.41502292888791     -2.45105151320906     -0.00288633965712
  C   -0.68043363066125     -3.67114691413476      0.00219618156929
  C   0.68064830854471     -3.67110707501605      0.00219646508289
  C   -3.51952793280933     -1.24629738171541      0.00217648456925
  C   -2.83895569669031     -2.42500845378844      0.00218381085559
  H   -3.37634320050840      3.36802884470541      0.00667608679327
  H   -4.60504005527269      1.23970495088677      0.00667181509610
  H   1.22862578817176      4.60801349662171      0.00668439567602
  H   -1.22889528313611      4.60794156923297      0.00668450851709
  H   4.60496755929943      1.23997422998372      0.00667156457526
  H   3.37614633527565      3.36822630387135      0.00667557303868
  H   3.37634313344655     -3.36802101661433      0.00669489193537
  H   4.60504005770002     -1.23969712762076      0.00667899347290
  H   -1.22862578462913     -4.60800565743071      0.00670959544538
  H   1.22889528718833     -4.60793373401594      0.00671015379981
  H   -4.60496755244982     -1.23996640338677      0.00667813465107
  H   -3.37614630470085     -3.36821845185459      0.00669355194253
  C   0.00000008141733     -0.00004824013390      4.19412295534119
  O   0.00000058067433     -0.00003386827717      3.03585644038621
  O   -0.00000043110231     -0.00006180396470      5.35415630850714
   -  0.00000074515157      0.00000337994690     -0.01045060426995
