45
Coordinates from ORCA-job gbm_co2_bridge_parallel_dsd_d3_TZVP
  C   -3.70049281447292     -3.55867499207372     -0.00418015764036
  C   -4.88268859015156     -2.86907520114960      0.00516297617046
  C   -4.88905909472509     -1.46382695413718      0.00107784943283
  C   -3.71666900872997     -0.72583583746426     -0.00973087650290
  C   -3.71090366854401      0.73867203762984     -0.01796779635648
  C   -4.87744260045661      1.48593762746835     -0.01329728088236
  C   -4.85995121583479      2.89108916671098     -0.00904750748824
  C   -3.67227073769617      3.57124437374286     -0.00508145107311
  C   -1.25298323457895     -3.54402622190215     -0.01447520105766
  C   -2.46774123961270     -2.85894107198237     -0.01314656271931
  C   -2.46998912687939     -1.42427322094470     -0.02298168032639
  C   -1.24181338626623     -0.72577106700286     -0.01968208427849
  C   -1.23610269300462      0.71899766242722     -0.02754888876605
  C   -2.45864170261909      1.42716032103357     -0.01352906543128
  C   -2.44508059308897      2.86177406766071     -0.01033742142391
  C   -1.22495084494073      3.53722375714112     -0.00514401357743
  C   1.19432003367867     -3.57807394605714     -0.00757114511166
  C   -0.03283720106045     -2.86856744863002     -0.01455532253371
  C   -0.01922236883193     -1.43398266807590     -0.02375255943342
  C   1.23294344776078     -0.74546856242551     -0.01075001324798
  C   1.23879767195544      0.71905437670853     -0.01655266833727
  C   -0.00799272944140      1.41744813299283     -0.01256809683623
  C   -0.01019798688831      2.85214604819146     -0.00877090107074
  C   1.22257377324156      3.55185986986994     -0.00139206801969
  C   2.38196443205919     -2.89788583625988      0.00033233851752
  C   2.39946392605103     -1.49273763894357     -0.00262763385039
  C   2.41120790003766      1.45706419907329     -0.00907470229708
  C   2.40483161952830      2.86231072911460     -0.00374718820843
  H   -5.82437480483043     -3.40185296371657      0.01500549746329
  H   -5.84516528730147     -0.96189577076205      0.01529758991253
  H   -5.83762333354531      0.99165139743045     -0.01778962494767
  H   -5.79742210756321      3.43132920529035     -0.00620805743808
  H   -3.68649371920091     -4.64128899259744      0.00017460891937
  H   -3.64970769217053      4.65371405047550     -0.00080477986752
  H   -1.25726792057603     -4.62809050132650     -0.00799611392976
  H   -1.22066285306970      4.62129760601895     -0.00108610363523
  H   1.17173341353812     -4.66054441756267     -0.00376456898037
  H   1.20858610551831      4.63447249879014      0.00340003770853
  H   3.31940974379893     -3.43812154987854      0.00824172362898
  H   3.35955744607395     -0.99843405401512      0.01008588114277
  H   3.36745687316096      0.95520510401646     -0.01193123132704
  H   3.34654678611877      3.39510424147345      0.00112065290844
  C   -1.24137509622316     -0.00896371185689      3.09858801374905
  O   -0.07784154894041     -0.02715858483236      3.10589433390378
  O   -2.40491197127653      0.00933174033638      3.10506826313870
