45
Coordinates from ORCA-job gbm_co2_top_parallel_b3lyp_d3_TZVP
  C   -3.55628590711066      3.70740124374588     -0.04497730365431
  C   -2.86628529445512      4.88616571143019     -0.06959076000845
  C   -1.46074720348168      4.88984135300386     -0.06578893084789
  C   -0.72544711281744      3.71843943554793     -0.03818643925677
  C   0.74080082805125      3.71077507418007     -0.00816959527950
  C   1.48954355704237      4.87326008900108      0.03578688312123
  C   2.89506257845088      4.85332950879438      0.05510210525858
  C   3.57244848332640      3.66720725719580      0.03112324066711
  C   -3.54568419725324      1.25801440441958     -0.00255157089705
  C   -2.86048221037493      2.47106614237358     -0.02576534557694
  C   -1.42513756114458      2.47046390031367     -0.03029747065315
  C   -0.72968500255724      1.24227007183114     -0.02646749960644
  C   0.71755599450826      1.23406973953910     -0.03697239952160
  C   1.42736063347491      2.45486829629121     -0.01980619794400
  C   2.86312691870525      2.43872739569730     -0.00547575614032
  C   3.53396628271470      1.21782252911352     -0.02482945253810
  C   -3.58351377193932     -1.19141870148172      0.03508446106770
  C   -2.87434528888106      0.03725432029757      0.00839919877253
  C   -1.43863653918710      0.02165468712557     -0.01036327353728
  C   -0.75250196584517     -1.23467570644224     -0.00982724941413
  C   0.71407549205985     -1.24277637789942     -0.03842543799210
  C   1.41376507814452      0.00533129840851     -0.04542926509635
  C   2.84902187979360      0.00499887294332     -0.04706596721045
  C   3.54519696564343     -1.23073906752999     -0.05959647542007
  C   -2.90656854850524     -2.37803960690732      0.04288797124097
  C   -1.50123242648578     -2.39780579967554      0.02031444430024
  C   1.45027490890534     -2.41406310865072     -0.05241877389533
  C   2.85560735845954     -2.40993008441878     -0.06469522380377
  H   -3.39695769221905      5.82961994253956     -0.08951606389381
  H   -0.95749926690976      5.84529788220494     -0.08553913756408
  H   0.99695887483374      5.83409661540327      0.06046288285718
  H   3.43595782037833      5.79058784860747      0.08865322061970
  H   -4.63915251170113      3.69546879108402     -0.04240259880716
  H   4.65502036883877      3.64305061137630      0.04324070802231
  H   -4.62933404426024      1.26424304608645      0.00634496510864
  H   4.61755825453158      1.21140733935931     -0.01615547230105
  H   -4.66608241540591     -1.16733456183525      0.05021274225390
  H   4.62799750505900     -1.21822360609296     -0.06155765778611
  H   -3.44760850220218     -3.31553699063989      0.06560827942722
  H   -1.00890573496840     -3.35908475270937      0.02811053995278
  H   0.94756215145186     -3.36999106163529     -0.05324827340941
  H   3.38651459264952     -3.35338807879756     -0.07435331945686
  C   0.74104424312390      1.24928817337624      3.18711993370752
  O   -0.17629809141240      1.95890231240273      3.19045328892343
  O   1.65852351897065      0.54009661102245      3.20051404621140
