46
Coordinates from ORCA-job gbm_co2_hollow_parallel_b3lyp_d3_TZVP
  C   -4.98007128402983     -1.24270287163928     -0.00687141980892
  C   -5.66164940267829     -0.05887312283159     -0.00070592485148
  C   -4.96793134965401      1.16359288595374     -0.00464044041534
  C   -3.58578813579943      1.22158345523257     -0.01659298079804
  C   -2.85123303611117      2.49100649701956     -0.01682839103900
  C   -3.48938201776594      3.71850981548470     -0.00709135359989
  C   -2.77490453111478      4.92893785096332     -0.00333518045764
  C   -1.40880838317122      4.92774694562431     -0.00772211901006
  C   -2.84797886930779     -2.44831967494551     -0.01924193968804
  C   -3.56126139962937     -1.25153059008124     -0.01828539485688
  C   -2.84891413006700     -0.00509231050389     -0.02600283210626
  C   -1.43766693080758     -0.00949827433509     -0.03797244624384
  C   -0.71346702634401      1.24120262187364     -0.03717104207674
  C   -1.42045130560801      2.46327049747160     -0.02485640558745
  C   -0.69434546362632      3.70187131603390     -0.01753955347302
  C   0.69890557599096      3.67922463589771     -0.01738394776420
  C   -0.73990426125877     -3.69672974935534     -0.02020634748734
  C   -1.45482325878879     -2.47128439616097     -0.02683360317215
  C   -0.72868723295505     -1.23232969242288     -0.03822296200032
  C   0.70110579314892     -1.26022186982467     -0.03724893812506
  C   1.43680601183727      0.01032841244854     -0.03647817188822
  C   0.70031076030569      1.23580498745961     -0.03626466234914
  C   1.41277152280515      2.48266817570535     -0.02390016655899
  C   2.83151803424191      2.47313374287965     -0.01651729674553
  C   0.62643873661980     -3.69767018107473     -0.01971808839009
  C   1.34031452687244     -2.48722146285205     -0.02640349643762
  C   2.81851680468267      0.06710757018733     -0.02902702457611
  C   3.51261567478127      1.28889656057405     -0.01909756520563
  H   -6.74424045534880     -0.05177350953792      0.00878367043432
  H   -5.54863533447494      2.07418866039513      0.00364597447914
  H   -4.56823350189826      3.76844375207824     -0.00108096282339
  H   -3.32034124480518      5.86413646271637      0.00425565993810
  H   -5.50655682428134     -2.18902900815770     -0.00179609813469
  H   -0.85055021235807      5.85569326382168     -0.00321631796536
  H   -3.39090261145819     -3.38618218896228     -0.01143970030528
  H   1.24176037675951      4.61714499639109     -0.00990542123142
  H   -1.29787866734240     -4.62483742198323     -0.01325395373765
  H   3.35837459088795      3.41922261836369     -0.00721434827659
  H   1.17213581870011     -4.63269176651021     -0.01223564428553
  H   2.41906176919795     -2.53602028703486     -0.02022127039797
  H   3.39835757175843     -0.84384931791682     -0.02494492808431
  H   4.59517512789394      1.28131889274488     -0.01160831325129
  C   -0.00487596878284      0.00473526980842      3.23991861117536
  O   1.12269501946085     -0.26608184673749      3.24042448991233
  O   -1.13241995881785      0.27552675877207      3.24920852956691
   X  -0.00314891765957      0.00579889696662     -0.03721028229968
