48
Coordinates from ORCA-job gbm_co2_hollow_parallel_wB97x_d3_TZVP
  C   2.84308572046908      2.43786324931333     -0.01793336497529
  C   1.42466252089203      2.44499901495761     -0.02722926082350
  C   0.71890152204383      3.67539867018997     -0.01547882548355
  C   1.44289950485277      4.87149060132023     -0.00082731586143
  C   2.83040516718710      4.85791632579754      0.00422271221641
  C   3.52648926460622      3.65758673345445     -0.00329728846717
  C   0.70900869843381      1.21645333604164     -0.04140562036923
  C   -0.70609806436384      1.22210125092712     -0.03790508574167
  C   -1.41276919214321      2.48306933590144     -0.02444429016085
  C   -0.71374411734141      3.65142933404771     -0.01495885472135
  C   3.52879909408774      1.17983541899045     -0.01932838072833
  C   2.85716926930297     -0.00439011425357     -0.02842315269611
  C   1.41192294559287     -0.01156149563516     -0.04066936324358
  C   0.70685935454650     -1.22166145290618     -0.03795197664386
  C   -0.70825445741855     -1.21602759405072     -0.04112296232192
  C   -1.41118000356424      0.01201748314995     -0.04049476541497
  C   -2.85643924209197      0.00482294831749     -0.02795223361386
  C   -3.54227528950872      1.28827074042160     -0.02084431949797
  C   -2.86758653416245      2.44659493769658     -0.01888981915652
  C   -1.42393278595030     -2.44457876167532     -0.02676545002919
  C   -2.84235008080689     -2.43742739331259     -0.01727548603799
  C   -3.52806792829915     -1.17939463714256     -0.01865039642708
  C   3.54301051533506     -1.28783457265528     -0.02141623573455
  C   2.86833793343888     -2.44616895726196     -0.01930188086069
  C   1.41352120631802     -2.48264768510979     -0.02454276786317
  C   0.71448052868335     -3.65100237201166     -0.01485113705505
  C   -0.71816753994437     -3.67498152401163     -0.01506661876244
  C   -1.44216944321872     -4.87106598392716     -0.00027042652611
  C   -2.82967752852439     -4.85747798120350      0.00501096455750
  C   -3.52575480039430     -3.65715043114045     -0.00247883148942
  H   0.90633936018198      5.81475271290053      0.00815226984280
  H   3.37642466910185      5.79506126687425      0.01613230280243
  H   4.61168468086121      3.65597185688760      0.00396614360292
  H   -1.24647351544225      4.59786841565005     -0.00445051658876
  H   4.61485268875008      1.18322143379974     -0.00926543072845
  H   -4.62758563899342      1.28116256953361     -0.01498435213928
  H   -3.39666360043577      3.39423428522968     -0.01176563632317
  H   -4.61411757952676     -1.18281302898892     -0.00838168680678
  H   4.62832284257866     -1.28071645111366     -0.01583700440230
  H   3.39743394169336     -3.39379785875080     -0.01221176578962
  H   1.24727497204990     -4.59740482286260     -0.00433859370431
  H   -0.90560284488782     -5.81432306991166      0.00873210153436
  H   -3.37568252568383     -5.79462980799217      0.01701655095493
  H   -4.61094848914192     -3.65551789741649      0.00495753418004
  C   -0.00559030740637     -0.00326186783512      3.21864894328266
  O   0.70763830033859      0.91057762781647      3.22093601720326
  O   -0.71874775292289     -0.91709430922615      3.23116912290626
   -  0.00036156082765      0.00024352117608     -0.03792756589406
