48
Coordinates from ORCA-job gbm_co2_bridge_orthogonal_wB97x_d3_TZVP
  C   2.83967774145742      2.44119435386407     -0.00232622007706
  C   1.42079420195124      2.44623286758393     -0.00988040988914
  C   0.71326462608982      3.67604652035169     -0.00659586918766
  C   1.43595897942411      4.87324442002459      0.00274581026081
  C   2.82350445056349      4.86156686739012      0.00903094978153
  C   3.52134248296320      3.66210004461296      0.00675507885412
  C   0.70618473991661      1.21636561750628     -0.01878143631771
  C   -0.70825416455679      1.22021074343058     -0.02561429669832
  C   -1.41603265667632      2.47965967699396     -0.01912192900910
  C   -0.71932224050147      3.64964350451625     -0.01079979604023
  C   3.52711330388825      1.18385667005340     -0.00335439780410
  C   2.85650512066974     -0.00124717297148     -0.00901546644905
  C   1.41125066849641     -0.01056178724134     -0.01550543018261
  C   0.70817361353200     -1.22101213983979     -0.01690109643080
  C   -0.70691611291357     -1.21647934464165     -0.01937500079562
  C   -1.41106233018680      0.01023757559572     -0.02448343150396
  C   -2.85573655781335      0.00102026230088     -0.01691181082991
  C   -3.54389062077794      1.28314754507031     -0.01474437013752
  C   -2.87068167356975      2.44217360220214     -0.01606999330514
  C   -1.42114858401894     -2.44656442594258     -0.01062705762386
  C   -2.83995649177222     -2.44130632988966     -0.00551878842404
  C   -3.52681839900881     -1.18384478214040     -0.00818215323055
  C   3.54426459728112     -1.28382734239195     -0.00774784135249
  C   2.87099294965355     -2.44295428959974     -0.00904860618135
  C   1.41614552000395     -2.48101139022259     -0.01139030776968
  C   0.71899581370922     -3.65070333857875     -0.00673857997277
  C   -0.71376974775604     -3.67655379889793     -0.00484605779575
  C   -1.43650438245123     -4.87360378523792      0.00397860138252
  C   -2.82415361483590     -4.86172905336945      0.00795808142340
  C   -3.52177180937176     -3.66225217025007      0.00366525834170
  H   0.89811233235386      5.81585908177332      0.00494539919918
  H   3.36827399668915      5.79952750947020      0.01596633980211
  H   4.60658805431883      3.66211654923099      0.01212670411778
  H   -1.25370008537182      4.59525997526855     -0.00558198643475
  H   4.61324471959428      1.18859152499586      0.00142779997095
  H   -4.62927076352600      1.27439668237769     -0.01160573381049
  H   -3.40082741628547      3.38931445569924     -0.01394342904149
  H   -4.61296824672576     -1.18819781876085     -0.00211487624065
  H   4.62962128266493     -1.27533631721288     -0.00528462578191
  H   3.40134678549040     -3.38994921895354     -0.00758099259025
  H   1.25303569030946     -4.59649011278551     -0.00275848668356
  H   -0.89878297076925     -5.81627220632170      0.00793863891176
  H   -3.36901640593571     -5.79963686636058      0.01472560350886
  H   -4.60703505644019     -3.66213235936452      0.00725259063774
  C   -1.07193551509919      0.62285963725865      4.28920677601834
  O   -1.06995320472291      0.62060385373967      3.13067672917378
  O   -1.07516536024225      0.62585238652561      5.44910298526669
   -  -1.06286125969161      0.61345612313822     -0.02503686905975
