48
Coordinates from ORCA-job gbm_co2_bridge_parallel_wB97x_d3_TZVP
  C   2.83971165112300      2.44145099610822     -0.00552248360650
  C   1.42096656569998      2.44709886860428     -0.01246554497671
  C   0.71328150637729      3.67683257818027     -0.00446709981468
  C   1.43611121339892      4.87380213176784      0.01038246062840
  C   2.82367182362084      4.86165839413691      0.01659805341463
  C   3.52144955142240      3.66222068991572      0.00863579255121
  C   0.70680651497009      1.21717683701113     -0.02498206312089
  C   -0.70842526960583      1.22189077938789     -0.02802565584246
  C   -1.41725482332070      2.48177806061148     -0.02617035383244
  C   -0.71945165653036      3.65103360204299     -0.01283541860970
  C   3.52656867855838      1.18400627464497     -0.01128595326371
  C   2.85603872443309     -0.00104436686108     -0.02086007851571
  C   1.41103775911880     -0.01003426743886     -0.02803760235377
  C   0.70796142338598     -1.22023142917188     -0.02569158020380
  C   -0.70698726880716     -1.21633474701490     -0.02444621157926
  C   -1.41209062556788      0.01072803694985     -0.03044633938612
  C   -2.85765753731379      0.00246013152928     -0.03017410361458
  C   -3.54475075502744      1.28493924965876     -0.03986231692025
  C   -2.87171750810803      2.44344964716021     -0.03749852537724
  C   -1.42172482865682     -2.44595075317930     -0.01182101600755
  C   -2.84056396152038     -2.44024967131518     -0.00682409921454
  C   -3.52779273709371     -1.18283943596170     -0.01759660166814
  C   3.54383043245226     -1.28341225895073     -0.01963921818790
  C   2.87054052332056     -2.44233433110757     -0.01749152084809
  C   1.41585049955870     -2.47998186784354     -0.01698411247162
  C   0.71848137661326     -3.64943573594904     -0.00603722082951
  C   -0.71410096546032     -3.67561284091102     -0.00188614876385
  C   -1.43697346397708     -4.87248628539456      0.01256902759167
  C   -2.82456991824312     -4.86040006198006      0.01765809405580
  C   -3.52239623660259     -3.66103279700564      0.00818381370447
  H   0.89847155265686      5.81646304798755      0.01660979222263
  H   3.36853418676390      5.79949407797957      0.02789101208498
  H   4.60665420646863      3.66212848715158      0.01400839555163
  H   -1.25351918730900      4.59670431912489     -0.00964001910745
  H   4.61264339198586      1.18850762550139     -0.00468307399554
  H   -4.62990952310099      1.27636685259752     -0.04260292450804
  H   -3.40177280309483      3.39039262333760     -0.03856283551721
  H   -4.61383656004573     -1.18729163416253     -0.01546325242697
  H   4.62912589343197     -1.27476533932500     -0.01780448744404
  H   3.40057781298343     -3.38943041841408     -0.01400469277020
  H   1.25252081782772     -4.59514446984540      0.00185706471566
  H   -0.89939287038662     -5.81516805904687      0.02031782935729
  H   -3.36942912184463     -5.79823626036169      0.02908235328508
  H   -4.60760634099935     -3.66088497469503      0.01221560666569
  C   -1.06612637212412      0.60991732246746      3.14021975613134
  O   -0.05264088741789      0.04761841282067      3.15664801177289
  O   -2.07990389444718      1.17238761418068      3.14018698352845
   -  -1.06338698956638      0.61466934507691     -0.02923949248334
