69
Coordinates from ORCA-job gbm_co2_top_orthogonal_b3lyp_d3_TZVP
  C   3.91215898850343     -4.27135159311321      0.00802198899007
  C   2.48374426034417     -4.27608303073259      0.00082361820800
  C   1.77107531721989     -5.51400806769576      0.00979588245399
  C   2.50364583908302     -6.71490901277515      0.02362915967915
  C   3.89089859435687     -6.70058797691162      0.02916731855061
  C   4.59148210657108     -5.50314106639338      0.02189938168716
  C   1.77445203907612     -3.05400178980527     -0.01406081110900
  C   0.35394808752400     -3.05626779994723     -0.01904883622799
  C   -0.35736484473364     -4.30572561249069     -0.00652007307214
  C   0.35779891308758     -5.49161941700325      0.00614920705135
  C   -0.35295439144327     -1.84142673938247     -0.03150643932501
  C   -1.77935121219539     -1.83859389841992     -0.02214751183477
  C   -2.48634454036863     -3.09663035020133     -0.01105668186753
  C   -1.78308340188288     -4.27364765318947     -0.00528636778708
  C   -2.47994005359471     -0.63209183228589     -0.01905670227996
  C   -3.92297841049175     -0.62169295106344     -0.00790583042304
  C   -4.60529702007699     -1.89222607230907     -0.00269237253567
  C   -3.92801583584300     -3.05890970742565     -0.00394052740204
  C   4.59378550274881     -3.03311131440132      0.00254854857851
  C   3.91883644233256     -1.82388593971038     -0.01015337224828
  C   2.48107806380633     -1.82173460153557     -0.02069972226160
  C   1.77687533718577     -0.60529622594156     -0.03313151279226
  C   0.35493340459175     -0.60822856991062     -0.04118671094488
  C   -0.35244120719434      0.61061595092411     -0.03468132154490
  C   -1.77489386178824      0.60804689145895     -0.02368179706018
  C   -2.47908983082492      1.82480536425241     -0.01265831019588
  C   -3.91687660471834      1.82684481297114     -0.00249025156955
  C   -4.59608690438041      0.57285010452041     -0.00135734145250
  C   4.59822148970154     -0.57002453506715     -0.01107414410306
  C   3.92509859527246      0.62447384173228     -0.01715780387224
  C   2.48203185316055      0.63465842508710     -0.02613090463243
  C   1.78197924101749      1.84147225768414     -0.02349652238838
  C   0.35542760603815      1.84445523803831     -0.02597206606712
  C   -0.35173371174614      3.05949235068902     -0.01507004638350
  C   -1.77234174261568      3.05714944297717     -0.00970603916646
  C   -2.48161330360443      4.27923971794858      0.00164220574668
  C   -3.91000326678057      4.27440887866055      0.00903436222063
  C   -4.59167860974200      3.03616344574458      0.00702316210104
  C   4.60749712208723      1.89498792366846     -0.01256221369115
  C   3.93045544942918      3.06181053732179     -0.01176240810044
  C   2.48879265152942      3.09961668834273     -0.01487772036137
  C   1.78548655926648      4.27663859661285     -0.00857042304549
  C   0.35973385158589      4.30892707963601     -0.00739900341332
  C   -0.35555537288562      5.49475530025030      0.00208679732279
  C   -1.76884837246554      5.51710515334012      0.00652616804764
  C   -2.50143216952007      6.71802333679538      0.01685410041040
  C   -3.88867943834593      6.70367160922473      0.02280716909406
  C   -4.58930348648425      5.50623621559855      0.01930770785217
  H   1.96853637552220     -7.65647933921193      0.03007479462891
  H   4.43447122498667     -7.63702775027086      0.03965621666041
  H   5.67449034564240     -5.50563073608871      0.02700251901264
  H   -0.17778501103433     -6.43400005954799      0.01463122389463
  H   -2.31949902836276     -5.21574297970712      0.00295706619628
  H   -5.68877898932943     -1.88690945166275      0.00338937016516
  H   -4.46073562012840     -4.00241020070576      0.00132395639802
  H   5.67773502980956     -3.03556990366214      0.00956791990106
  H   -5.68018516815031      0.57440429677569      0.00638787922026
  H   5.68233615179133     -0.57163337309125     -0.00438236327003
  H   -5.67562104997923      3.03872657146180      0.01385987438062
  H   5.69099514891134      1.88952425150206     -0.00886568163250
  H   4.46331755297201      4.00522851691550     -0.00760540068532
  H   2.32195000965531      5.21871263832375     -0.00272785706648
  H   0.17995661501985      6.43719211061179      0.00702728646439
  H   -1.96635389599142      7.65962119293512      0.02028005916784
  H   -4.43224645080146      7.64014022595426      0.03063001656502
  H   -5.67230551847436      5.50877354671724      0.02463653342135
  C   0.33073505434733     -0.64505795853060      4.23688363059703
  O   0.33732055180773     -0.63509715158837      3.07763146209935
  O   0.32422394999296     -0.65507885289741      5.39702750504631
