70
Coordinates from ORCA-job gbm_co2_hollow_orthogonal_b3lyp_d3_TZVP
  C   5.65603822712499      1.25112903089692      0.00920691252909
  C   4.94586139624133      0.01172673544170      0.00397426561117
  C   5.66154427184090     -1.22450953459269      0.00933180942890
  C   7.06786136097902     -1.19059971777124      0.01817985087262
  C   7.74915865849089      0.01794327790571      0.02232167303518
  C   7.06252658994667      1.22342278170779      0.01825557450422
  C   3.53283985912117      0.00861331253215     -0.00591068059481
  C   2.82473649576844     -1.22293701859070     -0.00831911667563
  C   3.55098081497568     -2.46380799505121     -0.00121781643345
  C   4.93558241229563     -2.43730731805942      0.00640595914671
  C   1.41888421738578     -1.22791390051833     -0.01550864913291
  C   0.70309391518991     -2.46204312214060     -0.01160983677031
  C   1.43924096327315     -3.70326310232142     -0.00531034840139
  C   2.81020594281093     -3.68249554085335     -0.00127503878123
  C   -0.69211379735310     -2.46515947357187     -0.01172137866910
  C   -1.42271788591120     -3.70965024434080     -0.00549541023517
  C   -0.66351755445167     -4.93582695539239     -0.00243536322326
  C   0.68551919936284     -4.93281561198395     -0.00234815252044
  C   4.92464406405213      2.46059909794429      0.00651993013074
  C   3.53987998411674      2.48090871575005     -0.00269436435829
  C   2.81893072905338      1.23693460386689     -0.01133614785535
  C   1.41330767321735      1.23622213259271     -0.02181201086859
  C   0.70413023199665      0.00195473210936     -0.02361981089831
  C   -0.70414544817367     -0.00119452933531     -0.02385858960312
  C   -1.41340631520917     -1.23424027589412     -0.01575926820150
  C   -2.81926538670450     -1.23552975230216     -0.00856022641346
  C   -3.53996718489142     -2.47962863929875     -0.00151673382033
  C   -2.79376252577493     -3.69499883157813     -0.00157462835070
  C   2.79351268861441      3.69598384796065     -0.00159164091107
  C   1.42238183277738      3.70981800619667     -0.00830759856473
  C   0.69248110345157      2.46530655715548     -0.01963156162446
  C   -0.70346734209745      2.46218825507133     -0.01987362148471
  C   -1.41881287748062      1.22989707872210     -0.02167608791335
  C   -2.82442862485039      1.22434477657552     -0.01131586088696
  C   -3.53285302802712     -0.00714863644320     -0.00603077701802
  C   -4.94587496173493     -0.01033719305022      0.00380036408369
  C   -5.65603641666916     -1.24975427061733      0.00906696627707
  C   -4.92467300234432     -2.45930210745237      0.00609467740988
  C   0.66347444315896      4.93614212017447     -0.00198636062384
  C   -0.68549353648126      4.93313101995026     -0.00212528565503
  C   -1.43891921229718      3.70343105764151     -0.00856179490123
  C   -2.80997484197590      3.68348157714978     -0.00180319983572
  C   -3.55091871796568      2.46509119567794     -0.00279516752689
  C   -4.93557886391810      2.43860615613507      0.00637226088664
  C   -5.66157169076523      1.22588544006211      0.00905583567996
  C   -7.06792303342859      1.19190618472716      0.01806408742716
  C   -7.74917091821131     -0.01662424129409      0.02206295545835
  C   -7.06249072641802     -1.22211658120951      0.01788046166983
  H   7.61573202316442     -2.12480991594324      0.02186341404720
  H   8.83195539080685      0.02033708786259      0.02906434567129
  H   7.60625841897408      2.16005263885716      0.02203092533653
  H   5.48404362046991     -3.37226468663392      0.01109695986856
  H   3.35798327858396     -4.61804088894462      0.00337317540083
  H   -1.20991672889172     -5.87146972893436      0.00048173241280
  H   1.23608916518130     -5.86600985465642      0.00063388450024
  H   5.46889230734158      3.39802296223723      0.01237134605123
  H   -3.33736053781549     -4.63297906342383      0.00302084642252
  H   3.33672677466622      4.63418351725078      0.00635383388527
  H   -5.46896013926171     -3.39669597037526      0.01074359461577
  H   1.21001454209312      5.87171449251536      0.00382566572818
  H   -1.23620634157678      5.86625362814558      0.00359312049754
  H   -3.35736658574360      4.61925003863073      0.00611428572628
  H   -5.48400322098505      3.37359322033862      0.01215256290109
  H   -7.61582762070363      2.12610102330675      0.02185838622062
  H   -8.83196782068848     -0.01906033516682      0.02877750072765
  H   -7.60618934810385     -2.15876132918195      0.02150104100977
  C   0.00007295098351      1.22821976963712      4.16744928797724
  O   0.00010310296556      1.23055133736535      3.00829691617745
  O   0.00020866854860      1.22656090422412      5.32775558247723
   X  -0.00002308211982      1.23579605260457     -0.02175646305312
