47
Coordinates from ORCA-job gbm_co2_top_parallel_b3lyp_d3_TZVP
  C   2.84672444743465      2.43987332441524     -0.02965837647441
  C   1.42091598105751      2.44458796323074     -0.03656687987743
  C   0.71056248362075      3.68085040506352     -0.02910634164494
  C   1.43990662380490      4.87924736306347     -0.02313602908701
  C   2.82737699179635      4.86561786894235     -0.02121297308487
  C   3.52649478029027      3.66707577098295     -0.02367839878727
  C   0.71008664526780      1.22099400544520     -0.03314617735735
  C   -0.71041830360797      1.22368429037400     -0.02666834195493
  C   -1.41693010424625      2.47724687627512     -0.01739863018874
  C   -0.70876099322818      3.65592086268258     -0.01887371270043
  C   3.52812468342124      1.19454238935386     -0.02010033770523
  C   2.85499415947808     -0.00448340455195     -0.01867626111955
  C   1.41605834797164     -0.01166556388354     -0.02726762414745
  C   0.71076469484461     -1.22496759080679     -0.02404594174498
  C   -0.70907118121799     -1.22186970384095     -0.02571408229237
  C   -1.41506198166874      0.01000331626248     -0.02345301012379
  C   -2.85369192115952      0.00363357792391     -0.01288906396322
  C   -3.53544492923529      1.27343807804964     -0.00427680076381
  C   -2.85774743821653      2.44062289413396     -0.00570325989410
  C   -1.41963356710285     -2.44499844182978     -0.01833506780366
  C   -2.84588416881463     -2.44027197952256     -0.01243820613589
  C   -3.52741175855623     -1.19481520485419     -0.00951664228036
  C   3.53686968736446     -1.27426980872602     -0.00768852109811
  C   2.85862380318027     -2.44113588582568     -0.00625284656802
  C   1.41784522815963     -2.47787253924238     -0.01417396321903
  C   0.71046888127745     -3.65676871773413     -0.01080160901247
  C   -0.70904871889093     -3.68164395186955     -0.01307465385493
  C   -1.43869836442010     -4.88021512288564     -0.00698492148457
  C   -2.82635962491199     -4.86647643112188     -0.00440884793045
  C   -3.52565562177675     -3.66781950239972     -0.00635755082479
  H   0.90471156337564      5.82085267010417     -0.01647526025231
  H   3.37125369937770      5.80182384384907     -0.01479378663505
  H   4.60957357892430      3.66857379910787     -0.01747920420244
  H   -1.24357768423234      4.59889834498831     -0.01026593169852
  H   4.61220931484490      1.19703569796992     -0.01199060662781
  H   -4.61889619707525      1.26861942518114      0.00428067284486
  H   -3.39025427994028      3.38419875160694      0.00139463706787
  H   -4.61151326580461     -1.19710683606381     -0.00211767839721
  H   4.62032869326105     -1.26948153070617     -0.00109994822339
  H   3.39111124072186     -3.38472282896871      0.00175092294990
  H   1.24547314325663     -4.59966851007633     -0.00392372065855
  H   -0.90365901615793     -5.82196496951590     -0.00314052031169
  H   -3.37025849301997     -5.80271792015193      0.00056720529066
  H   -4.60877735883020     -3.66951786696871     -0.00203473755078
  C   0.70524979722363      1.23363513568806      3.19838308135572
  O   1.28536684783017      2.23775856168460      3.19532334708295
  O   0.12511665432898      0.22946509516722      3.21323160108993
