47
Coordinates from ORCA-job gbm_co2_top_orthogonal_b3lyp_d3_TZVP
  C   2.84567018260625      2.43896159272416     -0.00880764892241
  C   1.41956416053191      2.44326402909112     -0.01981175525567
  C   0.70932835696740      3.67993528123433     -0.00838324422731
  C   1.43876451694257      4.87866562314301      0.00652164442147
  C   2.82645132304850      4.86521780183514      0.01296124048340
  C   3.52559838653748      3.66644932852385      0.00610845825908
  C   0.70932475948709      1.22058048416624     -0.03014397179729
  C   -0.71008393185582      1.22340903388155     -0.02486612364551
  C   -1.41725547197541      2.47622217124477     -0.01525735654616
  C   -0.71013569893441      3.65528984086741     -0.00834112140377
  C   3.52747202515103      1.19371567051742     -0.00919802482129
  C   2.85357370257149     -0.00464936896439     -0.01616143780671
  C   1.41496256216248     -0.01100649771847     -0.02534995922950
  C   0.71041364109859     -1.22477248435045     -0.01885179851817
  C   -0.70969789885997     -1.22227096895983     -0.01594075722773
  C   -1.41540133731503      0.01009229436339     -0.01837709540539
  C   -2.85430830637792      0.00324361964581     -0.00995875373713
  C   -3.53629428460440      1.27292959298684     -0.00757175445642
  C   -2.85801686803897      2.43984263388963     -0.00944371790681
  C   -1.42033593331535     -2.44563955363302     -0.00695792640554
  C   -2.84679732377566     -2.44096612536655     -0.00151678201441
  C   -3.52817281577597     -1.19531932127090     -0.00287762558686
  C   3.53573127859422     -1.27421226854745     -0.01079797956879
  C   2.85809737788848     -2.44149893640006     -0.00894818953142
  C   1.41731121960713     -2.47809139470554     -0.01089215303001
  C   0.71000343188554     -3.65722758043474     -0.00380627705070
  C   -0.70959760485287     -3.68244012884030     -0.00198858874208
  C   -1.43933773857299     -4.88103992444806      0.00612465054706
  C   -2.82702891664777     -4.86727557175581      0.00995046717396
  C   -3.52645448939602     -3.66865684495094      0.00658534754997
  H   0.90349370039263      5.82032022599677      0.01405871045001
  H   3.37031124341838      5.80146929635030      0.02431918031734
  H   4.60875569485857      3.66798224784253      0.01333079333749
  H   -1.24522553596920      4.59820421212512     -0.00026419138120
  H   4.61163388708059      1.19602581212461     -0.00141644685353
  H   -4.61980544526728      1.26821114061008     -0.00302436935431
  H   -3.39043981889353      3.38355887031768     -0.00584876115822
  H   -4.61232059551229     -1.19750116586062      0.00270997713522
  H   4.61926773350119     -1.26919245214924     -0.00752640907610
  H   3.39077371515272     -3.38504409440863     -0.00474496978586
  H   1.24520007549111     -4.60006902496771      0.00143255055350
  H   -0.90430475645453     -5.82281855085726      0.00954624347109
  H   -3.37090164470600     -5.80355319412731      0.01603136116120
  H   -4.60959859892934     -3.67045890377198      0.01036464766083
  C   0.71632845063603      1.24112017971206      4.25855149159059
  O   0.71453731411475      1.23574913687215      3.09948171641152
  O   0.71840080630456      1.24699172642331      5.41900302992256
