29
Coordinates from ORCA-job gbm_co2_top_parallel_pbe_d3_TZVP
  C   0.35634391735052      1.85745301679363     -0.03792687455775
  C   -0.35595025497971      0.61822775639241     -0.04564618774798
  C   -1.78528912812723      0.61863336365224     -0.03576222884372
  C   -2.46630958938955      1.84804162608452     -0.02410572278575
  C   -1.76404977940789      3.05251953350072     -0.02010401188855
  C   -0.36982851951807      3.06075066255323     -0.02624470349982
  C   0.35690707428883     -0.61413238776099     -0.05046099125717
  C   -0.35536453797949     -1.85443939316367     -0.04566171072205
  C   -1.78859950957426     -1.82207189197048     -0.03545925655225
  C   -2.47192276566737     -0.63951395178155     -0.03080816482063
  C   1.78932054402039      1.82537478131669     -0.03520068827427
  C   2.47371302759388      0.64344229331343     -0.03973410886429
  C   1.78717918059984     -0.61509164660803     -0.04766217588748
  C   2.46776244837310     -1.84488750270968     -0.04574752246160
  C   1.76535826648280     -3.04905922824867     -0.04439928228414
  C   0.37133544598048     -3.05755732766290     -0.04390788966502
  H   -3.55835555249387      1.84848521464164     -0.01539068043588
  H   -2.31039360318949      3.99703072364502     -0.00949404266933
  H   0.17425757389316      4.00762118467307     -0.01924085456904
  H   -2.32759751090816     -2.77210744828523     -0.03044649602180
  H   -3.56416401794396     -0.63286938469986     -0.02141690140424
  H   2.32814610670947      2.77549781676680     -0.02760657605970
  H   3.56598553014149      0.63701112889748     -0.03639159496016
  H   3.55978693939793     -1.84565570774255     -0.04108711967112
  H   2.31168528965664     -3.99352232538766     -0.03915694462120
  H   -0.17245951880041     -4.00454306870647     -0.03774798384942
  C   0.35035914483650     -0.63097176254299      3.29020018630188
  O   -0.23625317912236      0.38273448786211      3.29416014467605
  O   0.93698199777683     -1.64465851282227      3.30245152339643
