30
Coordinates from ORCA-job gbm_co2_hollow_parallel_pbe_d3_TZVP
  C   -1.43533414033685      1.22606834325251     -0.05689931099861
  C   -0.71104484904248     -0.00669417584357     -0.04989052508901
  C   -1.41996986350362     -1.24832332109845     -0.03091599471904
  C   -2.82548389050859     -1.22999657758224     -0.02221907922517
  C   -3.52360069153960     -0.02306866064405     -0.03011812822275
  C   -2.84003594917552      1.19189580074021     -0.04718713112449
  C   0.71263500442774      0.00191066051017     -0.05053654817391
  C   1.43650551274313     -1.23105472829497     -0.03179565713886
  C   0.69853003246560     -2.45982818533365     -0.01841219069599
  C   -0.66719157904511     -2.46809239686803     -0.01797708426259
  C   -0.69720743732802      2.45483439810740     -0.06531964251216
  C   0.66905022815727      2.46307185475506     -0.06640172438581
  C   1.42196225707162      1.24332868023506     -0.05715280537163
  C   2.82696570399458      1.22613253344709     -0.04806296979447
  C   3.52517346505585      0.01952216327771     -0.03136969464848
  C   2.84169820413881     -1.19575699156819     -0.02351640632284
  H   -3.36725037822864     -2.17812591040923     -0.00690056124326
  H   -4.61471553229040     -0.02949568127838     -0.02067026934572
  H   -3.39271577387382      2.13368860654660     -0.04834296867354
  H   1.25677693061814     -3.39863131983812     -0.00634742933118
  H   -1.21403991571592     -3.41357549142232     -0.00559928168076
  H   -1.25546218077421      3.39367612890274     -0.06893757387679
  H   1.21592581915284      3.40858843644263     -0.07031502044832
  H   3.36823395241000      2.17453080323073     -0.04930203311298
  H   4.61628953232177      0.02627108089818     -0.02226160904557
  H   3.39488470093120     -2.13727368475933     -0.00848639081529
  C   -0.00504992848659      1.25871293924369      3.33270260191223
  O   1.16609886944155      1.26342525945765      3.33253271562783
  O   -1.17615152222591      1.25415669981365      3.34697173329638
   X  -0.00547758085481      1.23610473607942     -0.05726202057724
