30
Coordinates from ORCA-job gbm_co2_bridge_parallel_pbe_d3_TZVP
  C   0.35692304624427      1.85603973676847     -0.03590689915435
  C   -0.35620626858937      0.61653193452920     -0.03970001054368
  C   -1.78622310429449      0.61652083450684     -0.03584323201364
  C   -2.46692406360623      1.84639059166401     -0.02404547866879
  C   -1.76412183478249      3.05082101231956     -0.01720401667152
  C   -0.36965766541297      3.05936527645458     -0.02419251524871
  C   0.35678689226111     -0.61619637071797     -0.03969945267069
  C   -0.35636902342076     -1.85569929029162     -0.03586575026483
  C   -1.78924266828537     -1.82334628530706     -0.03929234359256
  C   -2.47272892288387     -0.64159911470664     -0.03928730683160
  C   1.78978246381231      1.82365607565006     -0.03947415441042
  C   2.47326653361400      0.64191241187102     -0.03946920727895
  C   1.78679453328200     -0.61621088125742     -0.03588299285031
  C   2.46747970037637     -1.84607122129543     -0.02413915150498
  C   1.76466984362765     -3.05050468595114     -0.01720495184692
  C   0.37021184128502     -3.05904336793183     -0.02409847912839
  H   -3.55895897016835      1.84704065354909     -0.01888194063950
  H   -2.31043278779538      3.99540157141751     -0.00675617002407
  H   0.17434589662341      4.00625675220095     -0.01917856435407
  H   -2.32816115613597     -2.77328437034634     -0.03566044174123
  H   -3.56486927869317     -0.63501443693518     -0.03562927141248
  H   2.32872093346870      2.77358479482990     -0.03594323574842
  H   3.56540876809778      0.63534966925182     -0.03591218935899
  H   3.55951501130879     -1.84672998198661     -0.01906413390588
  H   2.31097125936552     -3.99509075252535     -0.00675794897232
  H   -0.17379928462322     -4.00593006718019     -0.01899688201126
  C   -0.00251743722123     -0.00145407285691      3.25575514355161
  O   1.01337082498531      0.58135938766169      3.25690767056329
  O   -1.01832514836362     -0.58422394410568      3.27112488628256
   X  0.00029006592426      0.00016822072068     -0.03969964954893
