91
Coordinates from ORCA-job gbm_co2_top_orthogonal_pbe_d3_TZVP
  C   -5.72498322461948      4.91077689203460      0.00770172775387
  C   -5.03925502493351      6.11147303102999      0.00688453005128
  C   -3.63974789024706      6.12995197253499      0.00337109052292
  C   -2.88820013720990      4.94236193504974      0.00036497609101
  C   -1.43098493169484      4.94087485339283     -0.00112961949218
  C   -0.69073698923629      6.13433747730397      0.00864929743783
  C   0.69073185860361      6.13419433482054      0.00601169907163
  C   1.43087980272975      4.94069011522546     -0.00741625142963
  C   2.88805362728959      4.94222480790936     -0.01096090839158
  C   3.63966754147769      6.12978740446594     -0.01102870322423
  C   5.03917759631473      6.11126121120282     -0.00976215865180
  C   5.72480199296878      4.91050467772409     -0.00778933110448
  C   -5.69382015715291      2.45098664738063      0.00365831810544
  C   -5.01819302563907      3.68208557169226      0.00361198577346
  C   -3.57891890837874      3.69852447328317     -0.00084116552356
  C   -2.85907152393482      2.46345027298889     -0.00710194163491
  C   -1.42604270459537      2.46506331750860     -0.01491653762598
  C   -0.71659092165124      3.70799584197327     -0.01128292289857
  C   0.71656423358102      3.70772925212670     -0.01547177115923
  C   1.42577228545550      2.46480001075003     -0.02450184931183
  C   2.85857551606923      2.46330554145333     -0.01788522629883
  C   3.57859194242804      3.69828876790335     -0.01258920847887
  C   5.01788566339713      3.68187069389857     -0.00938192736452
  C   5.69342547974461      2.45074452678118     -0.00780412335732
  C   -5.68706670329936     -0.00054645636242      0.00076314479990
  C   -5.00600164003198      1.22823459969247     -0.00048668156908
  C   -3.56049403725397      1.23406839415587     -0.00634313178729
  C   -2.85179863670580     -0.00054345509539     -0.01033597696680
  C   -1.42508111232980     -0.00036280656588     -0.01767211866699
  C   -0.71720096277388      1.23737395951565     -0.02348604230634
  C   0.71739067331779      1.23733219827716     -0.03022946090433
  C   1.42470276838734     -0.00020502788527     -0.02536439274825
  C   2.85120364074918     -0.00053415324938     -0.01832807970310
  C   3.55992095606461      1.23397204451158     -0.01553009189848
  C   5.00540904218554      1.22809869377091     -0.00965735954926
  C   5.68654243430051     -0.00063684393433     -0.00620926170618
  C   -5.69386430333660     -2.45207775455063     -0.00027231415262
  C   -5.00601169942219     -1.22932980453342     -0.00197877381324
  C   -3.56048719581915     -1.23522376221007     -0.00674017333999
  C   -2.85938355095363     -2.46478101813030     -0.00776623417418
  C   -1.42636806601033     -2.46650666144561     -0.01135774312973
  C   -0.71768401816621     -1.23848477160663     -0.01685608095947
  C   0.71743972303190     -1.23829188357157     -0.01929248814656
  C   1.42592145962888     -2.46642957326857     -0.01298277550783
  C   2.85890975577703     -2.46477668153340     -0.01043842604174
  C   3.55993180895876     -1.23517546098396     -0.01200346672296
  C   5.00546864203539     -1.22939363880491     -0.00677212128430
  C   5.69336881130801     -2.45211423468295     -0.00224060306324
  C   -5.72533176309742     -4.91190378363869     -0.00058705906130
  C   -5.01843477357977     -3.68327424942522     -0.00192995033153
  C   -3.57919239544900     -3.69984700257597     -0.00479868120023
  C   -2.88853627452738     -4.94372401877433     -0.00493379288947
  C   -1.43132398223655     -4.94238421367110     -0.00519824092132
  C   -0.71685816700278     -3.70952857296512     -0.00877122782370
  C   0.71637790640444     -3.70945709539631     -0.00865959087305
  C   1.43081458872168     -4.94234454838694     -0.00423541078753
  C   2.88802609725357     -4.94371030769192     -0.00270104425052
  C   3.57869912408613     -3.69983926257589     -0.00491678328673
  C   5.01794512108298     -3.68331091706937     -0.00154756739073
  C   5.72482706345023     -4.91194125363111      0.00287626694063
  C   -5.03968559989261     -6.11264258188430     -0.00207657483735
  C   -3.64017536880995     -6.13124093793762     -0.00405671505879
  C   -0.69100172693120     -6.13582286634081     -0.00143204768890
  C   0.69048031677792     -6.13578098644111     -0.00083555317418
  C   3.63964950671166     -6.13123073277637      0.00153153859273
  C   5.03915905933421     -6.11266627876233      0.00411174814463
  H   -5.58751393473893      7.05491783605961      0.00890585132187
  H   -3.13635059156696      7.09523594194821      0.00128554307613
  H   -1.20491732190646      7.09405481501412      0.02056727887425
  H   1.20508520267416      7.09384194950663      0.01658964927759
  H   3.13631132552885      7.09509656223895     -0.01387676518831
  H   5.58749300184120      7.05467657522753     -0.01013060387602
  H   -6.81643869528195      4.88961389816871      0.01076863039534
  H   -6.78645703151471      2.44511691664424      0.00724145116511
  H   -6.77967001512149     -0.00055349791200      0.00441600887068
  H   -6.78650573758131     -2.44610778554011      0.00247197751186
  H   -6.81678683835674     -4.89066803216084      0.00135436095171
  H   -5.58801026038938     -7.05604741596980     -0.00157129119397
  H   -3.13686299021887     -7.09656831896809     -0.00547116181858
  H   -1.20519986963491     -7.09559301122793      0.00205094639621
  H   1.20470661763198     -7.09553830249723      0.00265919735288
  H   3.13632322106460     -7.09655215815375      0.00281600253463
  H   5.58745834930699     -7.05608121434082      0.00727423817170
  H   6.81628349256989     -4.89071568145620      0.00518328325836
  H   6.78601269103304     -2.44611483036422      0.00092509049883
  H   6.77915402493892     -0.00062002738971     -0.00258741997832
  H   6.78607083902623      2.44475312429707     -0.00490478051398
  H   6.81626237575129      4.88923972378309     -0.00590513828081
  C   0.72286616686801      1.25752121809742      4.33289938976869
  O   0.72146225858735      1.25221068683401      3.16201669987595
  O   0.72445109678457      1.26312710616236      5.50431692192772
