91
Coordinates from ORCA-job gbm_co2_top_parallel_pbe_d3_TZVP
  C   -5.72457814617672      4.91105728720361      0.02646600449947
  C   -5.03873840897023      6.11166555634840      0.02729849274226
  C   -3.63924508171609      6.13021594538977      0.01708553650561
  C   -2.88774105435431      4.94269619940946      0.00592516170811
  C   -1.43055977362374      4.94128590065659     -0.00532005958296
  C   -0.69010813132865      6.13458218534674     -0.00383894585651
  C   0.69127596720036      6.13445606431701     -0.01407421457842
  C   1.43143939467405      4.94109630619146     -0.02702579420581
  C   2.88840770463657      4.94247066521591     -0.03446844989774
  C   3.63995535114521      6.12992858065563     -0.04057334890012
  C   5.03944402424523      6.11148336403916     -0.04079411732476
  C   5.72506370568483      4.91078549079550     -0.03372574866254
  C   -5.69330167955493      2.45121838454772      0.01367279788984
  C   -5.01784212796499      3.68238366282057      0.01540019056855
  C   -3.57863927389133      3.69892972855245      0.00529527582365
  C   -2.85908305602918      2.46385050357305     -0.00521587793969
  C   -1.42602506503269      2.46568488153548     -0.01618475477009
  C   -0.71601458792783      3.70855866594880     -0.01739157153899
  C   0.71703541259394      3.70849830966394     -0.02941970403778
  C   1.42656976753872      2.46590731355788     -0.03594715232302
  C   2.85923690137124      2.46400933813459     -0.03212253961554
  C   3.57896466348121      3.69880013818778     -0.03211809815004
  C   5.01805078033997      3.68228857376564     -0.02922091516079
  C   5.69358523336566      2.45124887389090     -0.02092887729742
  C   -5.68657212346180     -0.00035038757761      0.00074400161254
  C   -5.00556615858136      1.22845649255859      0.00319838395048
  C   -3.56008551139828      1.23425614609393     -0.00565850956148
  C   -2.85157226538552     -0.00049664611633     -0.01432004521367
  C   -1.42511423966550     -0.00075278079819     -0.02287852071307
  C   -0.71785897872867      1.23739354805159     -0.02523872171117
  C   0.71772651453149      1.23753888012687     -0.03193935411582
  C   1.42533640992310     -0.00096441738618     -0.02649163779284
  C   2.85207727013872     -0.00045577588691     -0.01993295228364
  C   3.56034105417061      1.23457362705752     -0.02301381697177
  C   5.00586544487900      1.22851467275998     -0.01615744705705
  C   5.68684869893042     -0.00025525333865     -0.00551751569892
  C   -5.69355432854979     -2.45178074166984     -0.01066138956522
  C   -5.00559280832509     -1.22911885952440     -0.00786154414537
  C   -3.56016790050808     -1.23506086994542     -0.01379047974898
  C   -2.85896459387766     -2.46447517795739     -0.01833109901391
  C   -1.42604764005332     -2.46626337078305     -0.02156141295680
  C   -0.71744374872332     -1.23844257997702     -0.02534608160408
  C   0.71746452621415     -1.23875050739795     -0.02334401463620
  C   1.42619973572674     -2.46640894858211     -0.01464187321247
  C   2.85922862348802     -2.46459374304071     -0.00744621317954
  C   3.56063422678646     -1.23522246607984     -0.00956434153747
  C   5.00606688947394     -1.22918152118153     -0.00204834238647
  C   5.69384146508534     -2.45190961023542      0.00816256298159
  C   -5.72499280162108     -4.91148663934359     -0.02046310622406
  C   -5.01804609627256     -3.68291894885229     -0.01679629759283
  C   -3.57881764502602     -3.69945138588482     -0.01868520200939
  C   -2.88816773592678     -4.94329311786422     -0.02117412879800
  C   -1.43099783874703     -4.94200526352926     -0.01678851640202
  C   -0.71653622954918     -3.70919001258931     -0.01782179934846
  C   0.71661684969910     -3.70930948942611     -0.01262406286171
  C   1.43104735219460     -4.94208775984344     -0.00465667735629
  C   2.88823655120747     -4.94342899922359      0.00336156769060
  C   3.57900375128680     -3.69960271176240      0.00212526863931
  C   5.01823153783511     -3.68300530059467      0.01026291725871
  C   5.72504965296197     -4.91164462684489      0.01985504619938
  C   -5.03935003272447     -6.11220923291126     -0.02594106037320
  C   -3.63984801311020     -6.13075955506475     -0.02595093755901
  C   -0.69073325430892     -6.13545675461642     -0.00983090089960
  C   0.69071992716738     -6.13551711515479     -0.00370677904147
  C   3.63982125149462     -6.13090773416783      0.01281402945050
  C   5.03931232524308     -6.11230895925612      0.02101783313019
  H   -5.58691475237903      7.05511515228686      0.03577642052139
  H   -3.13587426775058      7.09550283879065      0.01758058822210
  H   -1.20418545293054      7.09435458976853      0.00692617108896
  H   1.20559829725989      7.09411836941523     -0.00820114190278
  H   3.13659331409945      7.09520002969592     -0.04634280938988
  H   5.58770436221176      7.05489756603421     -0.04554758154518
  H   -6.81600079078847      4.88994633649673      0.03414386995512
  H   -6.78591474499660      2.44527345901679      0.02071037848451
  H   -6.77916241472844     -0.00033992748253      0.00617340835005
  H   -6.78618453259261     -2.44580767917868     -0.00758623951536
  H   -6.81644284591511     -4.89022796365370     -0.01927101171745
  H   -5.58764965034400     -7.05561302568543     -0.02974260728768
  H   -3.13653415624380     -7.09607509094166     -0.03066311581988
  H   -1.20498411258417     -7.09519711478250     -0.00694507639353
  H   1.20486726390653     -7.09529412982836      0.00247743936344
  H   3.13648835018026     -7.09621467136463      0.01418021319311
  H   5.58756997158087     -7.05572263575845      0.02836690337121
  H   6.81648248602505     -4.89046197222623      0.02612496910973
  H   6.78645596513524     -2.44600840712371      0.01406960981311
  H   6.77943485612197     -0.00008709550458     -0.00014640955616
  H   6.78621514135900      2.44534478609125     -0.01742479987654
  H   6.81650841057854      4.88947965052159     -0.03186207399734
  C   0.71275477627335      1.24919811713166      3.26446731184795
  O   1.29959309215673      2.26274775224235      3.26176761589058
  O   0.12580880076495      0.23564904405049      3.27678384855395
