91
Coordinates from ORCA-job gbm_co2_top_orthogonal_dsd_d3_TZVP
  C   -5.69230275750337      4.88755691318629      0.01600066581464
  C   -5.00815395489125      6.09607404702009      0.01434640758209
  C   -3.62450312776595      6.11672136047681      0.01158624224727
  C   -2.87461267326176      4.92676946335010      0.00494357821042
  C   -1.42340780926315      4.92565363103838      0.00839893286855
  C   -0.68658785074680      6.12132194039554      0.01439106988429
  C   0.68567830370248      6.12108369001071      0.01321877412105
  C   1.42262021854078      4.92553564337384     -0.00552610720915
  C   2.87380357621138      4.92710226177440     -0.00210199848085
  C   3.62319751015581      6.11738514951308     -0.00206407561575
  C   5.00683414881647      6.09662080606864      0.00156322346561
  C   5.69104562775994      4.88813961977321      0.00109878524851
  C   -5.66710500574787      2.43368485501460      0.01049836838028
  C   -4.98702234629934      3.68151784918460      0.00991355883813
  C   -3.56380094361769      3.69639675705804      0.00874614778783
  C   -2.84199123402993      2.45223092535957     -0.00473133685779
  C   -1.42186345669788      2.45606390180746     -0.00763971616461
  C   -0.71270667065331      3.70397728872783     -0.00969967019682
  C   0.71223015347161      3.70342873864959     -0.00853143138350
  C   1.42136595292244      2.45577418558929     -0.02681495077640
  C   2.84111519987949      2.45237456075205     -0.01138661722487
  C   3.56289764315258      3.69667510529159     -0.01016713320470
  C   4.98613993706193      3.68178650236723     -0.00182477679206
  C   5.66633553404211      2.43410959129911     -0.00167294115889
  C   -5.66505385256565     -0.00018130928479      0.00611595586260
  C   -4.98275608291015      1.23165933631182      0.00410779577920
  C   -3.54112502165793      1.23516992024872      0.00190789466303
  C   -2.83388466341057     -0.00013965154449     -0.00929716510336
  C   -1.42231713844518      0.00016298156145     -0.01173907879913
  C   -0.71350383724353      1.23697494377920     -0.02431728345102
  C   0.71383412456299      1.23690178703447     -0.02715868168696
  C   1.42188970375105      0.00043301892284     -0.02766181438317
  C   2.83309371146813      0.00001699429373     -0.01250039294300
  C   3.54054338583781      1.23535235815298     -0.01528643872410
  C   4.98228525782763      1.23185848759093     -0.00358878319487
  C   5.66441421782112     -0.00006320255700     -0.00110025443708
  C   -5.66727026075170     -2.43413018687166      0.00398692027896
  C   -4.98288650931664     -1.23212977645772      0.00150268576717
  C   -3.54117237492227     -1.23555597822748      0.00078855232437
  C   -2.84238820129884     -2.45283275218208     -0.00673776677005
  C   -1.42229508272953     -2.45672429774908     -0.00491945903255
  C   -0.71421119302030     -1.23723453591132     -0.01680172789722
  C   0.71394436857582     -1.23676398437868     -0.01454960599523
  C   1.42167733002571     -2.45658901335981     -0.01274340683334
  C   2.84172269960182     -2.45288337016183     -0.00337636098322
  C   3.54052619992420     -1.23550300470244     -0.01128532924266
  C   4.98234514247710     -1.23200180199660     -0.00066716663059
  C   5.66629440534563     -2.43431576980753      0.00370449300003
  C   -5.69259940175572     -4.88812856173680      0.00212483098004
  C   -4.98735558470060     -3.68205209359756      0.00066145160842
  C   -3.56414666449213     -3.69702336343139      0.00189007826581
  C   -2.87488405859607     -4.92739437394227     -0.00429756995527
  C   -1.42365075350038     -4.92633964203192      0.00193433832368
  C   -0.71289413135181     -3.70462434018989     -0.00801767934629
  C   0.71207440459075     -3.70445652231869     -0.00179314294418
  C   1.42271651887654     -4.92637248479017     -0.00282203069567
  C   2.87393694438935     -4.92757204555519      0.00584453602848
  C   3.56317576676817     -3.69725402914770     -0.00236574746868
  C   4.98631648614682     -3.68215420288603      0.00580047676322
  C   5.69127240660871     -4.88843027469845      0.01087525685244
  C   -5.00839694588263     -6.09659542869489     -0.00155748846771
  C   -3.62473954656661     -6.11734774415264     -0.00198767194922
  C   -0.68668466440343     -6.12191359266419      0.00201719075351
  C   0.68561036015032     -6.12188458259464      0.00498963327127
  C   3.62343327944238     -6.11774515149837      0.00945490320757
  C   5.00707398978512     -6.09692645825883      0.01429219867721
  H   -5.55752344310501      7.02835211956227      0.01718965939807
  H   -3.12493102934442      7.07353791876218      0.00537379494419
  H   -1.19650896571965      7.07238174538632      0.03204096339171
  H   1.19579679510984      7.07216432848384      0.01958582002462
  H   3.12358807057159      7.07419436897006      0.00043312864520
  H   5.55628006618046      7.02888596680663      0.00296690112981
  H   -6.77514698609691      4.86770617514453      0.01813985136100
  H   -6.75163268811185      2.43044886209168      0.01296299794469
  H   -6.74960231237744     -0.00012925042919      0.00830202719100
  H   -6.75179714895963     -2.43079489891468      0.00516478170828
  H   -6.77544319471674     -4.86833065243798      0.00258549655800
  H   -5.55778295729880     -7.02887098985696     -0.00186957586139
  H   -3.12522033479817     -7.07418205562180     -0.00882303763513
  H   -1.19664732974852     -7.07306619059456      0.01064404795555
  H   1.19559880650888     -7.07304264223299      0.00394822776104
  H   3.12383708187541     -7.07453706046898      0.01608553110709
  H   5.55652428821145     -7.02916637422041      0.01882695019795
  H   6.77412208376992     -4.86875393786320      0.01530233518556
  H   6.75081877274767     -2.43119199206519      0.00935216231647
  H   6.74895281636116     -0.00004902149374      0.00496718048028
  H   6.75085956176974      2.43105141227733      0.00407342554780
  H   6.77390152759050      4.86847613520956      0.00532208330266
  C   0.73056311866582      1.24462162340752      4.17311940862539
  O   0.72596537592003      1.24261283846340      3.00960440497099
  O   0.73526431530039      1.24698648403837      5.33667428889349
