45
Coordinates from ORCA-job gbm_co2_bridge_parallel_b3lyp_d3_TZVP
  C   -3.70295416329885     -3.55883622081257     -0.00570622099130
  C   -4.88282029963842     -2.87042597776188     -0.00444801693370
  C   -4.88869116056897     -1.46487684831280     -0.01117809042797
  C   -3.71867594472898     -0.72711804933360     -0.02019840478889
  C   -3.71278525727382      0.73922743478438     -0.02055850531130
  C   -4.87682657651379      1.48638006033894     -0.01216288095310
  C   -4.85965007462215      2.89184363899307     -0.00594103506618
  C   -3.67428672973417      3.57074377687654     -0.00707013826130
  C   -1.25297075921835     -3.54372417697284     -0.01107192922406
  C   -2.46760225942838     -2.86084741337153     -0.01424869229407
  C   -2.46956639362427     -1.42520736613363     -0.02375137112315
  C   -1.24164481068426     -0.72770361237010     -0.02976279931674
  C   -1.23582136969338      0.71990770659879     -0.02998814453522
  C   -2.45809895381872      1.42725058718566     -0.02426182512965
  C   -2.44458088969356      2.86284102338982     -0.01510652124193
  C   -1.22449663779830      3.53591577485140     -0.01174008257495
  C   1.19681448078970     -3.57854515184872     -0.00679055686367
  C   -0.03288487977789     -2.87063697261380     -0.01467199838725
  C   -0.01936985637404     -1.43505493533196     -0.02400307045314
  C   1.23531861988002     -0.74704171067965     -0.02068452214424
  C   1.24120674444001      0.71930939696634     -0.02050595499254
  C   -0.00789194111121      1.41739266707948     -0.02423815892499
  C   -0.00986311652454      2.85303014230338     -0.01492227617782
  C   1.22548089679771      3.55102774304973     -0.00649640260562
  C   2.38218655123201     -2.89965387810518     -0.00610417911213
  C   2.39936822039566     -1.49419468148372     -0.01256312040644
  C   2.41122394039091      1.45707292265047     -0.01151795143691
  C   2.40535163352406      2.86262156951309     -0.00505912573814
  H   -5.82571290045143     -3.40241804601633      0.00302603278085
  H   -5.84528747067185     -0.96360936128136     -0.00651590155874
  H   -5.83742038844682      0.99281714558702     -0.00762001342487
  H   -5.79823485978065      3.43140611119953      0.00106669617204
  H   -3.68915543306622     -4.64166152004833      0.00089607268670
  H   -3.65178247094138      4.65342523498503     -0.00077544797167
  H   -1.25732907598050     -4.62742338722594     -0.00345180271757
  H   -1.22013474819041      4.61961596733278     -0.00424797918563
  H   1.17431106154988     -4.66122568113918     -0.00033007466624
  H   1.21167686006155      4.63385403634689     -0.00006816871554
  H   3.32076943067212     -3.43922259206276      0.00070752587485
  H   3.35996791996577     -1.00063738954479     -0.00846516003853
  H   3.36782183829656      0.95580882335479     -0.00662663374793
  H   3.34824186286960      3.39461839187524      0.00238032218986
  C   -1.24419994019468     -0.00219705654374      3.15300248296855
  O   -0.08452480179536     -0.00239819834882      3.16027020305982
  O   -2.40387489722016     -0.00198292791910      3.16046582171044
