46
Coordinates from ORCA-job gbm_co2_bridge_parallel_wB97x_d3_TZVP
  C   -3.70595657552577     -3.56244461064673     -0.00945605034861
  C   -4.87868112427657     -2.87898897242293     -0.00908524738749
  C   -4.88300643876408     -1.46247249439503     -0.01307994888482
  C   -3.72244517465646     -0.73278005444140     -0.01844474112511
  C   -3.71649841090791      0.74438497166893     -0.01705192817107
  C   -4.87113108711120      1.48338004759964     -0.00828629987716
  C   -4.85540543991978      2.89981572330086     -0.00312293434759
  C   -3.67722948710430      3.57381891553104     -0.00565832558884
  C   -1.25376777740919     -3.54346248857294     -0.01103005884572
  C   -2.46488048806824     -2.85875003505884     -0.01473932239239
  C   -2.46603383437666     -1.43047805409877     -0.02165263000677
  C   -1.24245363129543     -0.73494637833914     -0.02569648974482
  C   -1.23656652599855      0.72658826380160     -0.02646336138041
  C   -2.45450625805203      1.43194806298619     -0.02105401554301
  C   -2.44185730772998      2.86016800895815     -0.01355210961236
  C   -1.22527744856696      3.53511219612705     -0.01157592106241
  C   1.19818643283762     -3.58216236655454     -0.00401200460675
  C   -0.03718087284185     -2.86850376871234     -0.01222912131140
  C   -0.02451856787423     -1.44030161131205     -0.01973357382565
  C   1.23745181670561     -0.75272265911783     -0.01572360139786
  C   1.24339462721744      0.72443621475773     -0.01685220959425
  C   -0.01299487382797      1.42213307847885     -0.02112071389788
  C   -0.01415871131681      2.85038169319380     -0.01423190292721
  C   1.22690597042743      3.55409381788375     -0.00762456102904
  C   2.37635713655765     -2.90814883646714     -0.00168284771078
  C   2.39208134008076     -1.49171113288219     -0.00715527027519
  C   2.40393940045725      1.45411270320453     -0.00997964486974
  C   2.39962132392594      2.87063302595123     -0.00590594620059
  H   -5.82454413234332     -3.40956458559253     -0.00443408037335
  H   -5.84253652731757     -0.96252776336278     -0.00962454680042
  H   -5.83463243644044      0.99115056247556     -0.00287325135453
  H   -5.79695800693109      3.43797617250912      0.00401397886527
  H   -3.68832880938992     -4.64722609381346     -0.00503171978150
  H   -3.65086514356537      4.65842116692231     -0.00070369199368
  H   -1.25813942551191     -4.62921562780890     -0.00518690841907
  H   -1.22090296256043      4.62086498645992     -0.00564852888228
  H   1.17182410852405     -4.66676410577813      0.00110765223301
  H   1.20926755029496      4.63887539390935     -0.00322071075887
  H   3.31791303052362     -3.44630603325106      0.00545342413562
  H   3.35558635612334     -0.99948536042599     -0.00215397067181
  H   3.36346243460797      0.95416629835932     -0.00525529200786
  H   3.34548168473938      3.40120364253662     -0.00009870056099
  C   -1.23317664021037      0.00157506311911      3.13717299277826
  O   -0.07396295210979      0.00184825060379      3.13370149237743
  O   -2.39228286519539      0.00127580161773      3.15503576370890
   -  -1.24264927582340     -0.00015202890148     -0.02609712052923
