46
Coordinates from ORCA-job gbm_co2_hollow_parallel_wB97x_d3_TZVP
  C   -4.98336502962279     -1.24420119536231     -0.00699181559766
  C   -5.66139891549593     -0.06850044319105     -0.00091687114648
  C   -4.96117745910868      1.16307340645085     -0.00413752665288
  C   -3.59143490465981      1.21896425893194     -0.01528661219395
  C   -2.85143788413960      2.49747550531649     -0.01568749940456
  C   -3.48496472360558      3.71334555857289     -0.00728890273822
  C   -2.76562501675097      4.93377763514005     -0.00416102766504
  C   -1.40831277176280      4.93129651229272     -0.00794888910946
  C   -2.84770911011624     -2.44727108917720     -0.01888234182949
  C   -3.55647038721200     -1.25095136666063     -0.01759694892368
  C   -2.84734974316555     -0.01078823112202     -0.02437329053686
  C   -1.44131855351207     -0.01309991686187     -0.03542811674629
  C   -0.71198180889683      1.24591287021759     -0.03462407179928
  C   -1.41441529730953      2.46474252021241     -0.02309032286541
  C   -0.69198562118016      3.69724928581405     -0.01662387640372
  C   0.69869208364200      3.67800116861969     -0.01643106183193
  C   -0.74015534690654     -3.70077786832889     -0.02069873555054
  C   -1.45605596654358     -2.46756306291286     -0.02628572836320
  C   -0.73312485148713     -1.23551889528570     -0.03653042740559
  C   0.69843393821680     -1.26756879618139     -0.03559288947410
  C   1.44195976077656      0.01585940084225     -0.03481289242539
  C   0.70108311052841      1.24083509557743     -0.03374020118739
  C   1.40930310548518      2.48145088746725     -0.02241855860959
  C   2.83538205124788      2.47474762291154     -0.01607386798022
  C   0.61798598913101     -3.70283668041945     -0.01965711269765
  C   1.33533416116132     -2.48247274003396     -0.02492394672407
  C   2.81195557745797      0.06835608341885     -0.02930026885735
  C   3.51309535238292      1.29808812838541     -0.01967901028477
  H   -6.74585706700816     -0.05898125387633      0.00790998369226
  H   -5.54525056031360      2.07388427392250      0.00400269563895
  H   -4.56567304215559      3.76629290985310     -0.00186998857711
  H   -3.31388379582143      5.86950939282773      0.00246225864338
  H   -5.50732681880892     -2.19421072542949     -0.00282976966404
  H   -0.84536727443825      5.85874711574538     -0.00420739353985
  H   -3.39182239690245     -3.38679802986365     -0.01191880882214
  H   1.24253492993667      4.61770804180499     -0.00975482245834
  H   -1.30273029873224     -4.62845127331313     -0.01506995651961
  H   3.35970294612105      3.42452541188357     -0.00738201769423
  H   1.16678317051058     -4.63822370477479     -0.01290540290545
  H   2.41597398553766     -2.53280748831064     -0.01825603851636
  H   3.39400645724709     -0.84352085384727     -0.02683048091030
  H   4.59751823504265      1.28782945688768     -0.01345338881233
  C   -0.00564830671647      0.00509695212434      3.23395562067828
  O   1.12754222255454     -0.23918847033229      3.23408049365607
  O   -1.13869746185264      0.24937170349381      3.24630870227259
   -  -0.00493266275473      0.00674588657041     -0.03510487115702
