45
Coordinates from ORCA-job gbm_co2_top_parallel_wB97x_d3_TZVP
  C   -3.56215035940898      3.70605854284391     -0.05201100813976
  C   -2.87784590972978      4.87804754049591     -0.08273357552330
  C   -1.46142745971937      4.88141808711546     -0.07613073187188
  C   -0.73338703498126      3.72027611281663     -0.03902064891345
  C   0.74334588951565      3.71378249333652     -0.00345244944284
  C   1.48245939339276      4.86736826799420      0.04703922250930
  C   2.89893166226576      4.85036584102410      0.06856365432420
  C   3.57273470153359      3.67228811242947      0.04094186184367
  C   -3.54571185120314      1.25438598793715     -0.00007991769401
  C   -2.85976701123407      2.46465870540934     -0.02559313504928
  C   -1.43180473791363      2.46463706317957     -0.02756473158859
  C   -0.73716242027846      1.24118398205839     -0.02228948459639
  C   0.72395416187612      1.23427862034093     -0.03400754783308
  C   1.43053664195179      2.45140467552051     -0.01637014818064
  C   2.85886754409554      2.43748434922207     -0.00035727669820
  C   3.53275622195408      1.22052072641325     -0.02201702130057
  C   -3.58510774218109     -1.19730850843945      0.04266050777269
  C   -2.87145836365159      0.03773817311242      0.01347483278899
  C   -1.44303147274765      0.02413915560273     -0.00575054366280
  C   -0.75613939130204     -1.23876587261372     -0.00671231551174
  C   0.72095918714653     -1.24536642674143     -0.04085001503502
  C   1.41908793900980      0.01052908783784     -0.04575970430599
  C   2.84695533480074      0.01054940816378     -0.04834106232490
  C   3.54987844389886     -1.23031790113331     -0.06614797552128
  C   -2.91179923620946     -2.37602959237617      0.05156807847737
  C   -1.49554127348851     -2.39309344276449      0.02629473519949
  C   1.44989384408378     -2.40643562235921     -0.06083778605643
  C   2.86611888270581     -2.40284498303238     -0.07561538795340
  H   -3.40782929824446      5.82388741618107     -0.10920817843667
  H   -0.96009451407836      5.84002053582075     -0.10032797402129
  H   0.99003083220204      5.83042966273275      0.07483293078466
  H   3.43739188212443      5.79102960539783      0.10629317226334
  H   -4.64696052798335      3.68954722128299     -0.05128731021873
  H   4.65725142351335      3.64537581004276      0.05363968077653
  H   -4.63142527098928      1.25965403006079      0.00746865331247
  H   4.61843189409629      1.21501230407769     -0.01363635126696
  H   -4.66960100926327     -1.17047018358143      0.05868959480296
  H   4.63462302410859     -1.21311353283036     -0.06985301871122
  H   -3.45050509437599     -3.31698342035043      0.07640519041034
  H   -1.00364193047416     -3.35680828529016      0.03406884007588
  H   0.94920580169335     -3.36565247580219     -0.06369106844543
  H   3.39625700416707     -3.34882329793995     -0.08977005736187
  C   0.74980614704852      1.25591284005664      3.17656561939758
  O   0.02484111167744      2.16060287397982      3.17630580634766
  O   1.47461494059597      0.35143531276729      3.19455304457858
