15
Coordinates from ORCA-job gbm_co2_bridge_orthogonal_pbe_d3_TZVP
  C   0.70681072069175      1.20296984255334     -0.06658869179395
  C   -0.68803941419541      1.20255340211880     -0.08276111845790
  C   -1.38538496331161     -0.00552951719244     -0.08289212638561
  C   -0.68811627567691     -1.21359081748882     -0.06639890115230
  C   0.70727079838718     -1.21373953599170     -0.04948025131213
  C   1.40485228110088     -0.00528118822228     -0.05051010195032
  H   1.24941796379023      2.14287628276251     -0.06760409090329
  H   -1.23081610458272      2.14219760071112     -0.09420071216084
  H   -2.47052859192179     -0.00548141908362     -0.09436817393302
  H   -1.23064002195036     -2.15354600561817     -0.06687204926204
  H   1.24990727951882     -2.15355309752272     -0.03739503750908
  H   2.49007621002231     -0.00512641571887     -0.03872257766156
  C   -1.08901268739701      0.62835681668009      4.49310715566059
  O   -1.07618514584753      0.62109959451849      3.33002322378078
  O   -1.10319624053590      0.63643606750038      5.65749162737242
