92
Coordinates from ORCA-job gbm_co2_bridge_orthogonal_b3lyp_d3_TZVP
  C   -5.70657914121068      4.89140094947614      0.01048004292253
  C   -5.02473650861837      6.08371219551215      0.00879251358475
  C   -3.62847382410466      6.10316296012466      0.00323212406831
  C   -2.88118175126930      4.92374976791447     -0.00131002811880
  C   -1.42409301987508      4.92216126204844     -0.00321744210844
  C   -0.68778527438874      6.10890131581037      0.00480575090146
  C   0.68848281513388      6.10905925223143      0.00441939861227
  C   1.42483449531872      4.92236202820317     -0.00306994175379
  C   2.88192937718769      4.92386430960805     -0.00237281103519
  C   3.62917879920828      6.10331666276581     -0.00088041839607
  C   5.02543191162703      6.08381599085786      0.00188667178244
  C   5.70733678436022      4.89152957967491      0.00338323527194
  C   -5.67473632004308      2.44080799658033      0.00681893383019
  C   -5.00189370536475      3.66571638684503      0.00503671737080
  C   -3.56798800173030      3.68341636537058     -0.00220478469124
  C   -2.85027120368495      2.45310837127221     -0.01051332499456
  C   -1.42064415598110      2.45420483075039     -0.01897924090341
  C   -0.71355925188710      3.69435804677177     -0.01144453238852
  C   0.71419772950909      3.69465578506808     -0.01006693253230
  C   1.42145900277652      2.45461067983490     -0.01294279672379
  C   2.85126638063031      2.45327560123105     -0.00677625289231
  C   3.56887799457773      3.68364293977926     -0.00250916752062
  C   5.00275497708797      3.66579655692180      0.00108280232230
  C   5.67576090638696      2.44093555187918      0.00210195008649
  C   -5.66804636780069     -0.00007207721259      0.00440755696577
  C   -4.98994029563383      1.22334344165639      0.00091848834937
  C   -3.54770963547764      1.22972335337949     -0.00904596341130
  C   -2.84135778975760     -0.00007076820525     -0.01648951197921
  C   -1.42076508973059      0.00008005049358     -0.02667438968679
  C   -0.71630326809506      1.23357750515800     -0.02676854275353
  C   0.71625901808114      1.23380265713563     -0.02014279744296
  C   1.42139158245571     -0.00002723895385     -0.01571053647665
  C   2.84267914646090     -0.00014076238237     -0.00883602281125
  C   3.54896779931370      1.22983937890828     -0.00558142674101
  C   4.99124663572735      1.22332064774204     -0.00060076413940
  C   5.66915726458862     -0.00022431142021      0.00118542256720
  C   -5.67480586520998     -2.44103235545904      0.00608300778547
  C   -4.99007193226418     -1.22353594338135      0.00069758135788
  C   -3.54778428138167     -1.22990008926537     -0.00847691902181
  C   -2.85057419057112     -2.45356544055734     -0.00823313411707
  C   -1.42092131449892     -2.45485121928472     -0.01316768316031
  C   -0.71643634764464     -1.23359591568658     -0.02112284317944
  C   0.71661572143401     -1.23400169154996     -0.01682289369894
  C   1.42153723717747     -2.45507739706300     -0.01104482588020
  C   2.85132625426654     -2.45374079571615     -0.00669685833622
  C   3.54889187336335     -1.23022336316613     -0.00550655979712
  C   4.99117891668899     -1.22373830042876     -0.00092097968876
  C   5.67566766049676     -2.44136984226493      0.00094868314702
  C   -5.70678759474076     -4.89167546502905      0.00957206495245
  C   -5.00207664050449     -3.66603668227892      0.00463300328606
  C   -3.56822437984079     -3.68390812244630     -0.00129669611419
  C   -2.88138526914500     -4.92419533550360     -0.00025900501998
  C   -1.42427166471210     -4.92272416194024     -0.00294392448884
  C   -0.71360672803918     -3.69500266965986     -0.00837698711944
  C   0.71419926360029     -3.69518618392203     -0.00871477523746
  C   1.42482705460222     -4.92288849159304     -0.00479229583005
  C   2.88194025415668     -4.92436220404960     -0.00438837447450
  C   3.56889284562751     -3.68413447092709     -0.00380974387009
  C   5.00275016429057     -3.66627727981939     -0.00073646381938
  C   5.70736062041197     -4.89198775962362      0.00047044724208
  C   -5.02497719964241     -6.08402396224679      0.00892538676046
  C   -3.62873163586112     -6.10358248877147      0.00430852738240
  C   -0.68789172017847     -6.10944370374587      0.00076724360048
  C   0.68837910633890     -6.10955122658796     -0.00031239075073
  C   3.62920837310187     -6.10378867096426     -0.00376681512082
  C   5.02546419888494     -6.08427855523482     -0.00146541394084
  H   -5.56802016168693      7.02023144031832      0.01201081929016
  H   -3.13228805142603      7.06169758656881      0.00193458162146
  H   -1.19575779426253      7.06144502957230      0.01257967327131
  H   1.19632138054841      7.06166948271715      0.01178585524146
  H   3.13298224092434      7.06183761133064     -0.00279604298832
  H   5.56873951104579      7.02032697257131      0.00281230737322
  H   -6.78927828281315      4.87163463488983      0.01543015731873
  H   -6.75829288727040      2.43510707090383      0.01292222318136
  H   -6.75156598432588     -0.00002393681446      0.01086396823730
  H   -6.75836504258893     -2.43530929379443      0.01168550093887
  H   -6.78948863517853     -4.87190111773614      0.01363029998530
  H   -5.56831766112239     -7.02050747416684      0.01223745092113
  H   -3.13258638445183     -7.06213610075403      0.00426907174307
  H   -1.19582673211558     -7.06202342352037      0.00520972674414
  H   1.19621241691384     -7.06218497482760      0.00352326401472
  H   3.13302317363526     -7.06231648685032     -0.00560958080129
  H   5.56876818103670     -7.02078932523100     -0.00114112777873
  H   6.79006449280428     -4.87230645351859      0.00255528745155
  H   6.75922957014981     -2.43584021858057      0.00362876057238
  H   6.75267552186846     -0.00026050669273      0.00448975353404
  H   6.75931879028866      2.43543384390042      0.00506950946021
  H   6.79004109930548      4.87186488776036      0.00583366762114
  C   -1.08047844947414      0.62352194216918      4.24572602482133
  O   -1.07659950090683      0.62121881755113      3.08630253102231
  O   -1.08455988958669      0.62594482284057      5.40581310650379
   -  -1.06591971729675      0.61487469472926     -0.02670713128342
