91
Coordinates from ORCA-job gbm_co2_top_parallel_b3lyp_d3_TZVP
  C   -5.70569527077694      4.89211969525902      0.03980847583658
  C   -5.02341373376793      6.08416973682588      0.04094425478097
  C   -3.62718715339945      6.10346279663579      0.02771229584359
  C   -2.88020216437818      4.92397257160441      0.01334065815183
  C   -1.42315775488752      4.92221236991164     -0.00128420501323
  C   -0.68650530284606      6.10864575345228      0.00085688015072
  C   0.68960832128972      6.10829102073984     -0.01192651807854
  C   1.42555156624286      4.92156460171915     -0.02883463682722
  C   2.88234847079475      4.92298498911746     -0.03715906517374
  C   3.62968543280287      6.10224926479749     -0.04455087696608
  C   5.02591512550716      6.08275062055095     -0.04353130527838
  C   5.70764397302674      4.89043765414767     -0.03381214305697
  C   -5.67442256591088      2.44146115601348      0.02300908277703
  C   -5.00141182837841      3.66630402551884      0.02545098012692
  C   -3.56761015376944      3.68399469619507      0.01254163455430
  C   -2.85041699991778      2.45358439587172     -0.00099683674263
  C   -1.42060832831998      2.45492615120864     -0.01509534378082
  C   -0.71256136747934      3.69466917000015     -0.01709938659916
  C   0.71487519792012      3.69433534826796     -0.03247996075361
  C   1.42198404686746      2.45472365965095     -0.04103419296704
  C   2.85127757247935      2.45299059720578     -0.03409061305208
  C   3.56902528956697      3.68295680315244     -0.03339238898300
  C   5.00270312258602      3.66498414237677     -0.02838801033588
  C   5.67549796205208      2.44012961364268     -0.01717639945413
  C   -5.66814055586624      0.00028717732544      0.00572210087998
  C   -4.99014031186242      1.22377450047479      0.00936655651436
  C   -3.54788888451134      1.23002832075316     -0.00178430214328
  C   -2.84198951190984     -0.00021454262769     -0.01317831889081
  C   -1.42097469618010     -0.00067336400625     -0.02394386712125
  C   -0.71646480861067      1.23347065803074     -0.02699538808239
  C   0.71695546242465      1.23341509711791     -0.03697450924927
  C   1.42151860513985     -0.00117736681768     -0.02864718765359
  C   2.84264665891055     -0.00088018780995     -0.01891296696312
  C   3.54861104196359      1.22946168514234     -0.02195434630789
  C   4.99094064514295      1.22263029217482     -0.01182893947508
  C   5.66864055604383     -0.00093349255246      0.00198818091265
  C   -5.67528792752661     -2.44072119461874     -0.01014506617451
  C   -4.99046738478047     -1.22330716144915     -0.00579465306436
  C   -3.54829766945480     -1.23005670361168     -0.01318669238328
  C   -2.85087900379204     -2.45354326666191     -0.01963396901588
  C   -1.42121840684758     -2.45515663482781     -0.02370516623896
  C   -0.71623108146186     -1.23439858694499     -0.02792334303073
  C   0.71650810262274     -1.23482275792297     -0.02516242639415
  C   1.42115564789949     -2.45555393962705     -0.01395606883176
  C   2.85089870863434     -2.45432346814221     -0.00370064308311
  C   3.54870536769304     -1.23105941754594     -0.00533217330498
  C   4.99086285320514     -1.22453676576264      0.00544721641218
  C   5.67527001719668     -2.44213162693994      0.01836376747501
  C   -5.70739546756580     -4.89120634193326     -0.02413185995210
  C   -5.00252871223086     -3.66568681750348     -0.01858598960826
  C   -3.56869024859825     -3.68370972653338     -0.02083967275499
  C   -2.88190135647277     -4.92397315016897     -0.02462441367273
  C   -1.42484376536893     -4.92276463113987     -0.01888906742684
  C   -0.71404045406415     -3.69521584857520     -0.01934004014852
  C   0.71364379634033     -3.69545151784576     -0.01216152480582
  C   1.42409663264850     -4.92312855262432     -0.00224564880591
  C   2.88116515502368     -4.92476619611546      0.00888857441376
  C   3.56833610116258     -3.68466940529091      0.00838632256697
  C   5.00215188246968     -3.66691571252742      0.01982828015085
  C   5.70659173132199     -4.89267291960276      0.03187331724037
  C   -5.02566031306516     -6.08356270819679     -0.03158341645073
  C   -3.62941127600650     -6.10321763760059     -0.03144554754871
  C   -0.68866140140865     -6.10954865018634     -0.01045954112510
  C   0.68756926891589     -6.10973223364397     -0.00213756908582
  C   3.62826484291419     -6.10419798980482      0.02079350461514
  C   5.02449170368057     -6.08481883253048      0.03220374293790
  H   -5.56640551937784      7.02078915615018      0.05188507714482
  H   -3.13083190505419      7.06188775869835      0.02837387495544
  H   -1.19407120937342      7.06131341555468      0.01481777533398
  H   1.19778730914308      7.06067951682469     -0.00448109676664
  H   3.13356400845356      7.06076229520837     -0.05202200638166
  H   5.56925291924555      7.01920344170144     -0.04924449907847
  H   -6.78834876501418      4.87270005508075      0.04963396277416
  H   -6.75794173570229      2.43599295266540      0.03186687367960
  H   -6.75163983722043      0.00041842769446      0.01246518743127
  H   -6.75883534239234     -2.43499326344010     -0.00645249445414
  H   -6.79008831625823     -4.87134787516257     -0.02282951128086
  H   -5.56905883070396     -7.01999021487776     -0.03695981767584
  H   -3.13336163367767     -7.06179629548701     -0.03748184332772
  H   -1.19668138194372     -7.06208111571677     -0.00786552130138
  H   1.19527846003106     -7.06240015138957      0.00529184680267
  H   3.13198185358003     -7.06266490841399      0.02171336034936
  H   5.56760981557822     -7.02138565721924      0.04139727534731
  H   6.78925517200336     -4.87312024455145      0.04062909690389
  H   6.75878851941709     -2.43665229524380      0.02670854336586
  H   6.75212897469986     -0.00084539409166      0.00960589273551
  H   6.75904051195844      2.43447722029115     -0.01187242299565
  H   6.79032915517719      4.87053483370984     -0.03067483847969
  C   0.70835805028358      1.25020653058669      3.17986894000956
  O   1.14890300239027      2.32289816281788      3.17544689519397
  O   0.26716672368357      0.17769343341765      3.19364982523001
