35
Coordinates from ORCA-job gbm_co2_bridge_parallel_pbe_d3_TZVP
  C   3.61482513298779     -1.17014079269317      0.01019554836368
  C   2.90804153736214     -2.35366069841039      0.00443166634683
  C   1.50368832445344     -2.33927285667042      0.00307104576270
  C   0.77789540057387     -1.14862524228416      0.00712735550594
  C   -0.69195129850173     -1.12989422676628      0.01581204835430
  C   -1.44961476530021     -2.30068140619383      0.04149409857468
  C   -2.85403763736938     -2.27772270033800      0.04737664155743
  C   -3.53017240278735     -1.07646315188498      0.02700353886556
  C   2.93137294588617      0.07099561818079      0.01095033845469
  C   1.49475930451043      0.08968413642851      0.00642522766906
  C   0.81073786416683      1.34649021391609      0.00445985253552
  C   -0.65944601652357      1.36602434873526     -0.00232923475585
  C   -1.37743517626947      0.12694969626557      0.00284008761104
  C   -2.81466388276209      0.14615942203285      0.00596908312118
  C   1.56730414726721      2.51799328431362      0.01121935635126
  C   -1.38665346775772      2.55657440872627     -0.00724839280739
  H   3.43413587544174     -3.30958324367432      0.00206238186506
  H   0.98176734815133     -3.29531623657542     -0.00213363162965
  H   -0.95283799907481     -3.26980608826242      0.06057175744891
  H   -3.40490242429735     -3.21938849821204      0.06820389795275
  H   4.70663888169444     -1.16891004234715      0.01379494322086
  H   -4.62146607903516     -1.04660201231070      0.03197918507644
  C   3.64697461005456      1.29388519143112      0.01691666949529
  C   -3.49769649562750      1.38715385410052     -0.00247409231035
  C   2.97157054499906      2.49563200423999      0.01800174656333
  C   -2.79094827317477      2.57037558186550     -0.00860082016076
  H   4.73838261603948      1.26405145822251      0.02148815290958
  H   3.52254242344934      3.43742457677243      0.02357544256541
  H   1.07046253390377      3.48737615649073      0.01183653633113
  H   -0.86485269457800      3.51269857299260     -0.01128600160985
  H   -3.31710580841927      3.52616833097317     -0.01092185781257
  H   -4.58934028533225      1.38602366771881      0.00311266132359
  C   -1.06398826985968      0.52943850035979      3.28494274859511
  O   0.03130448072432      0.11701397377901      3.23946454760348
  O   -2.15846899499561      0.94175119907817      3.34769747106155
