40
Coordinates from ORCA-job gbm_co2_bridge_orthogonal_b3lyp_d3_TZVP
  C   0.71097456045627      1.23146123040252     -0.01718220408055
  C   -0.71039940196335      1.23109688707767     -0.02142377106772
  C   -1.42100705761022      0.00025284516916     -0.02294250552090
  C   -0.71064682697599     -1.23086596530815     -0.01602447374411
  C   0.71129614494311     -1.23123851445662     -0.01308041930751
  C   1.42227684150902      0.00020597192197     -0.01517871518411
  C   -1.41786027934581      2.45661655276532     -0.01120862051086
  C   -2.83627992342599      2.42677964580596     -0.00470557092137
  C   -3.51945525703385      1.24348325577615     -0.00657053844479
  C   -2.83608302582680      0.00018446161778     -0.01438984814742
  C   1.41899131107386      2.45733334517320     -0.00841845597491
  C   0.68364367950327      3.67072455215470     -0.00221530012204
  C   -0.68287574931161      3.67012835287751     -0.00292569649361
  C   2.83795907042920      0.00014518533889     -0.00864923168645
  C   3.52104855191329      1.24380316445797     -0.00477515623205
  C   2.83757952613663      2.42712081063827     -0.00383671546951
  C   1.41918742147309     -2.45721810174926     -0.00485260984168
  C   2.83776950102678     -2.42695357155958     -0.00135250807664
  C   3.52103341676095     -1.24351397120354     -0.00335688198161
  C   -1.41828914276048     -2.45694745175408     -0.00667218047877
  C   -0.68283234959145     -3.67036307579662      0.00095200664246
  C   0.68368511306472     -3.67060775608034      0.00120178257780
  C   -3.51954113087410     -1.24308070092909     -0.00674450800803
  C   -2.83679882535424     -2.42681533671664     -0.00335214145378
  H   -3.37497503699715      3.36690397395579      0.00254782571748
  H   -4.60298233995582      1.23993086598832     -0.00063153722816
  H   1.22819659338991      4.60744533639641      0.00397866187585
  H   -1.22786641338713      4.60662599330751      0.00349249403846
  H   4.60454829666725      1.24052675393382     -0.00098713537868
  H   3.37635905662451      3.36718830047222      0.00096640028750
  H   3.37662325242573     -3.36696028769711      0.00371275323362
  H   4.60453573929706     -1.24016974505085      0.00026121125327
  H   -1.22756747228535     -4.60698657399588      0.00674383078504
  H   1.22826727520561     -4.60730150034805      0.00685442202194
  H   -4.60307645452137     -1.23935045246478     -0.00211780412214
  H   -3.37575409897329     -3.36676771910977      0.00293362522619
  C   -1.07679649741910      0.61679738856645      4.26350385583304
  O   -1.07421175647330      0.61676835455782      3.10453214036315
  O   -1.08054508217686      0.61756952136033      5.42409110191282
   X  -1.06567221963696      0.61568737450461     -0.02218362229129
