39
Coordinates from ORCA-job gbm_co2_top_parallel_b3lyp_d3_TZVP
  C   0.71148126163103      1.23240639945703     -0.03021710401991
  C   -0.71081828957104      1.23236478561898     -0.03364994142084
  C   -1.42131723602969      0.00087132787473     -0.02612742789111
  C   -0.71013141760716     -1.23006969114181     -0.02122354500597
  C   0.71148496897520     -1.23042182322072     -0.02612986008942
  C   1.42266812746406      0.00067774481694     -0.03364760704694
  C   -1.41805030094386      2.45874532002369     -0.02836887658572
  C   -2.83670424313663      2.42846654703392     -0.02015937925640
  C   -3.51955885056760      1.24487507026188     -0.01463527761528
  C   -2.83665410549276      0.00107265076530     -0.01612898963763
  C   1.41936931517417      2.45858352635172     -0.03623751273854
  C   0.68446392162507      3.67156948106045     -0.03365338675261
  C   -0.68178075601351      3.67181727661443     -0.02843655733486
  C   2.83835877581906      0.00147008909733     -0.02836165628626
  C   3.52070286298469      1.24567227145882     -0.02842920004959
  C   2.83729764911240      2.42871273352131     -0.03364932725498
  C   1.41940015788544     -2.45599797785998     -0.01613248575295
  C   2.83801459902875     -2.42542865100231     -0.01463878229829
  C   3.52153508126871     -1.24222177870936     -0.02015694912788
  C   -1.41778474808269     -2.45584019440543     -0.00826579208520
  C   -0.68232339837916     -3.66910805968856     -0.00101349466243
  C   0.68409637988863     -3.66931357054469     -0.00486884588078
  C   -3.51969142570805     -1.24241545432421     -0.00486605970925
  C   -2.83623581218180     -2.42562918188757     -0.00101210937118
  H   -3.37554192106646      3.36843266050050     -0.01740643448729
  H   -4.60300583342079      1.24149624656890     -0.00718784290485
  H   1.22951289546030      4.60772044803793     -0.03033352696596
  H   -1.22608993378054      4.60860112920959     -0.02304754665912
  H   4.60413625456948      1.24274109804630     -0.02304167444461
  H   3.37545006005471      3.36884552297182     -0.03034214772167
  H   3.37686669764324     -3.36537934473754     -0.00719591569514
  H   4.60498824449689     -1.23882274801848     -0.01740483077387
  H   -1.22700000413329     -4.60565927681873      0.00901091014365
  H   1.22871460201960     -4.60591986644240      0.00234458668330
  H   -4.60312565855655     -1.23912802906503      0.00234939276963
  H   -3.37492035065086     -3.36563983422772      0.00901270354629
  C   0.70365915144929      1.21886341706180      3.21066448649210
  O   1.28339731129383      2.22315737431926      3.21626227734067
  O   0.12385185747787      0.21444712142189      3.21632071055086
