39
Coordinates from ORCA-job gbm_co2_top_orthogonal_b3lyp_d3_TZVP
  C   0.71098182178733      1.22998063969147     -0.02527917382242
  C   -0.71019817450172      1.23030491085048     -0.01919382351750
  C   -1.42153505763442     -0.00074583536717     -0.01475411417879
  C   -0.71078337578620     -1.23236970679546     -0.01517192261307
  C   0.71120708197058     -1.23220499465198     -0.01572737658979
  C   1.42176235989211     -0.00069657867381     -0.02014924591880
  C   -1.41796633189730      2.45608744924349     -0.00891276318130
  C   -2.83649658264224      2.42607295392147     -0.00029415671891
  C   -3.52019651596614      1.24286505610153      0.00023872508994
  C   -2.83723382097654     -0.00081275268745     -0.00608985526887
  C   1.41851257175111      2.45532504094441     -0.01931982851554
  C   0.68380952121900      3.66878277462821     -0.01098322434427
  C   -0.68260778083481      3.66942721770071     -0.00550848717603
  C   2.83721812750350     -0.00087225200661     -0.01099159179807
  C   3.52042853130953      1.24257685301241     -0.00769091504444
  C   2.83675091615836      2.42566698958277     -0.01214062464389
  C   1.41890614511310     -2.45833066085778     -0.00810418626272
  C   2.83745045509364     -2.42807615299984     -0.00283366298696
  C   3.52038655436310     -1.24442862706910     -0.00340921621412
  C   -1.41867967176633     -2.45836953239651     -0.00902995606611
  C   -0.68318693249077     -3.67176753956427     -0.00520301575084
  C   0.68333403437290     -3.67169334866147     -0.00422538725304
  C   -3.52034886778911     -1.24446306338581     -0.00222606881345
  C   -2.83725189546201     -2.42799967573097     -0.00418379792742
  H   -3.37511764458995      3.36623629199008      0.00600388103417
  H   -4.60369044030023      1.23969140998402      0.00635789487284
  H   1.22891065487554      4.60523432589695     -0.00706124633606
  H   -1.22717873395442      4.60614673578392      0.00181314880134
  H   4.60394180159255      1.23923253153578     -0.00127251138915
  H   3.37527285082893      3.36591763335162     -0.00829797797322
  H   3.37637414055250     -3.36804384263533      0.00248701842869
  H   4.60390697783392     -1.24090165895270      0.00204116421641
  H   -1.22784136363650     -4.60842743785574     -0.00169520289183
  H   1.22799880192879     -4.60835444678594      0.00012299504707
  H   -4.60385002612011     -1.24101381521293      0.00291134467724
  H   -3.37617067949774     -3.36797152659858     -0.00067624313494
  C   0.71040487799911      1.24705958762473      4.27561333815758
  O   0.71080934637294      1.24297730799705      3.11663319880456
  O   0.71068221332798      1.25257250904838      5.43619784720172
