40
Coordinates from ORCA-job gbm_co2_hollow_parallel_b3lyp_d3_TZVP
  C   0.71130047984453      1.23189067744820     -0.04131747816221
  C   -0.71090027679891      1.23160360538454     -0.04133439959601
  C   -1.42219555314628      0.00004210494442     -0.04119897116933
  C   -0.71128213376945     -1.23121847565607     -0.04099311137289
  C   0.71093064456099     -1.23091519037686     -0.04097883128877
  C   1.42220904308701      0.00064853475169     -0.04111033265412
  C   -1.41891974977021      2.45783412164716     -0.02641208506266
  C   -2.83737049776119      2.42706672715775     -0.01705061886350
  C   -3.52025025550043      1.24340256046511     -0.01730692549830
  C   -2.83736285555781     -0.00004449918783     -0.02682713202066
  C   1.41887650557156      2.45745273600361     -0.02704539466082
  C   0.68339696957855      3.67053768199724     -0.01752498550209
  C   -0.68312265117315      3.67091340234706     -0.01716282994859
  C   2.83735817680926      0.00073029211014     -0.02664743339195
  C   3.52023511314373      1.24408540841113     -0.01613976545064
  C   2.83709264808593      2.42724813324196     -0.01633430310331
  C   1.41894017029407     -2.45714754706667     -0.02568717309665
  C   2.83739138918354     -2.42638113249596     -0.01621893981129
  C   3.52025273548483     -1.24270969400220     -0.01673815877336
  C   -1.41886817754939     -2.45678371144461     -0.02647917209118
  C   -0.68338466829843     -3.66985972682967     -0.01661629204976
  C   0.68313746000648     -3.67022110685882     -0.01616933242132
  C   -3.52023023660093     -1.24340453382385     -0.01606699555747
  C   -2.83708409784670     -2.42656807560825     -0.01590570277336
  H   -3.37636286777244      3.36690935933798     -0.00715418119808
  H   -4.60364473238714      1.23983471184454     -0.00697433590186
  H   1.22813615846496      4.60703052125208     -0.00727366613338
  H   -1.22760637929515      4.60758496478572     -0.00727085504385
  H   4.60359203967138      1.24062346309800     -0.00425714864752
  H   3.37571721364642      3.36722799214902     -0.00460582253148
  H   3.37638498470465     -3.36621961150728     -0.00603345399981
  H   4.60364686820755     -1.23912913425103     -0.00631617334757
  H   -1.22811670699557     -4.60635341147118     -0.00616458507540
  H   1.22762110366208     -4.60688996292584     -0.00600195977049
  H   -4.60358760764756     -1.23994754555149     -0.00427193016386
  H   -3.37571308580940     -3.36654208683831     -0.00398453419225
  C   -0.00008213322363     -0.00424294778501      3.23533689928500
  O   1.00422613045809      0.57553194477696      3.23617762905319
  O   -1.00437574144724     -0.58396592292843      3.24521009914391
   X  0.00001460388546      0.00034531345505     -0.04115565715632
