45
Coordinates from ORCA-job gbm_co2_top_orthogonal_dsd_d3_TZVP
  C   -3.55946626462094      3.70103288804124      0.00515165042987
  C   -2.87017150632656      4.88348515712939     -0.00592376856025
  C   -1.46487485948350      4.88984115462096     -0.01215113939976
  C   -0.72708935841454      3.71690807915751     -0.01094034574682
  C   0.73788221259012      3.71053990914282     -0.00360005587715
  C   1.48477855397116      4.87765490991754      0.01182045050834
  C   2.88994451570647      4.86024547591607      0.01265097215347
  C   3.56956527677400      3.67219276620387     -0.00136170018713
  C   -3.54586224677117      1.25370739308423      0.00926457554845
  C   -2.86009582194874      2.46796017776624      0.00319198910095
  C   -1.42525129931162      2.46965934393888     -0.00188315780825
  C   -0.72602512756616      1.24243361615062     -0.01666617248756
  C   0.71730393168851      1.23666015699500     -0.02016478500023
  C   1.42570628512160      2.45791851592724     -0.02237404755976
  C   2.86017751941551      2.44495440818474     -0.01134881291420
  C   3.53638832587894      1.22540030843085     -0.01095755197893
  C   -3.57901981496735     -1.19343372265003      0.00658487384272
  C   -2.86981898955029      0.03401101343179      0.00391883910409
  C   -1.43503446598485      0.02084414912814     -0.00113172132019
  C   -0.74685937462992     -1.23194617924437     -0.00943411374013
  C   0.71811481372235     -1.23727909331779     -0.00200597316876
  C   1.41592648478307      0.00978191702172     -0.02165118254768
  C   2.85044730736527      0.01128879219732     -0.01056451118737
  C   3.55000664218796     -1.22157021829112      0.00031282898531
  C   -2.89919448757804     -2.38136166750221     -0.00382182284293
  C   -1.49399270939931     -2.39894860440070     -0.01002546700325
  C   1.45565405992005     -2.41031928639330      0.01433859438542
  C   2.86091358586515     -2.40414472804228      0.01519986329726
  H   -3.40315608356894      5.82514504803390     -0.00817640339423
  H   -0.96284442929722      5.84598403560351     -0.02557866562402
  H   0.99019635839125      5.83757067861796      0.03191207173349
  H   3.43045078091487      5.79755391839921      0.02390116114559
  H   -4.64211524120428      3.68722474156686      0.01046594408802
  H   4.65210518595071      3.64954089371347      0.00133452740694
  H   -4.62992181185712      1.25803928085522      0.01253341945532
  H   4.62046737982455      1.22106958264260     -0.00383893634094
  H   -4.66152400284976     -1.17097260911723      0.01187708587427
  H   4.63269319360539     -1.20756781523370      0.00302549545919
  H   -3.43968607578065     -3.31873413401538     -0.00556614861425
  H   -0.99961687850949     -3.35907875633778     -0.02295755931920
  H   0.95341005462222     -3.36623302646226      0.03518167703517
  H   3.39391077473229     -3.34573484155698      0.02717036073977
  C   0.72713288529748      1.22689461112190      4.20047855159347
  O   0.72468727759645      1.22958841808419      3.03739232734895
  O   0.73030644369505      1.22420534154010      5.36436978338691
