46
Coordinates from ORCA-job gbm_co2_bridge_orthogonal_dsd_d3_TZVP
  C   -4.98307767902074     -1.23253290268864      0.00245227668629
  C   -5.66256502824043     -0.04437982112196     -0.00456246880397
  C   -4.96549454178716      1.17587910500343     -0.00489930440511
  C   -3.58083508029477      1.22845193599746     -0.00313166971123
  C   -2.84316083898522      2.49425986995896      0.00753798764421
  C   -3.48013501093170      3.72480175780934      0.01680625227787
  C   -2.76217989068593      4.93288355831012      0.02070184252729
  C   -1.39347000131306      4.92754819786303      0.01303436969916
  C   -2.85663838164148     -2.44421912821356      0.00995333725518
  C   -3.56554922810465     -1.24339640781337      0.00312699082295
  C   -2.84953425869102      0.00011926799989      0.00287546305825
  C   -1.43712159720465     -0.00833405537710     -0.00816516947402
  C   -0.71029877768251      1.23893405349977     -0.00161638603096
  C   -1.41398219763309      2.46363293677299     -0.00272986742896
  C   -0.68514466009488      3.69964801144685      0.00559491903983
  C   0.70910824305677      3.67493684708123      0.00283954590080
  C   -0.75409776383126     -3.69650260627295      0.01929668834157
  C   -1.46222429549867     -2.46839382572836      0.00863069474384
  C   -0.73352952957784     -1.23276049998439      0.00338916287598
  C   0.69512539003035     -1.26296960320492      0.00074807894238
  C   1.43245806673429      0.00244831418722      0.00102223139366
  C   0.70187477057167      1.23050373164291     -0.00763487093868
  C   1.41761075617350      2.47368305274604      0.00005257186633
  C   2.83524359536962      2.46311694455509      0.00188405138356
  C   0.61458972111738     -3.70159527373769      0.02015459069436
  C   1.33220057108809     -2.49321308482795      0.01308842581833
  C   2.81693558527148      0.05475396292275      0.00133932601226
  C   3.51447344043172      1.27484630563789      0.00371926136167
  H   -6.74454540198936     -0.03517489868488     -0.00760388737529
  H   -5.54260638381983      2.08872035906557     -0.01346866805512
  H   -4.55883204844074      3.77675223644890      0.02807477263400
  H   -3.30363716606303      5.86965605793607      0.02838196762808
  H   -5.51241465144053     -2.17707351760931      0.00363891545506
  H   -0.83267845743167      5.85375548154128      0.01636231866215
  H   -3.40231980512528     -3.38096137875477      0.01268661164211
  H   1.25505734698477      4.61151566160734      0.00745240242287
  H   -1.31490791620633     -4.62270533206569      0.02422300685386
  H   3.36456625466265      3.40767572216478      0.00460404839187
  H   1.15627597974317     -4.63828034250589      0.02767684116851
  H   2.41097857451590     -2.54524766043050      0.01260212355941
  H   3.39406736056900     -0.85813312960577      0.00612174992929
  H   4.59649367751018      1.26539016707248      0.00502337851873
  C   -0.01480717616429      0.00708831816423      4.10704708054555
  O   -0.01049472165731      0.00499502005765      2.94408913640090
  O   -0.01810443049623      0.00859307414722      5.27101713267852
   -  -0.00085441377685      0.00043851698716     -0.00348126261335
