69
Coordinates from ORCA-job gbm_co2_bridge_parallel_b3lyp_d3_TZVP
  C   3.91080875403080     -4.27297089200746      0.00815994995744
  C   2.48242723999300     -4.27786228637544      0.00006624297997
  C   1.76948125929355     -5.51560546418902      0.00806656911005
  C   2.50199849050551     -6.71648550256057      0.02265416444392
  C   3.88924497354112     -6.70211627214221      0.02957037895918
  C   4.59000867674583     -5.50479050496936      0.02273937843733
  C   1.77324595473250     -3.05579314047932     -0.01526711668324
  C   0.35255853194781     -3.05839273566845     -0.02178649481041
  C   -0.35913734317590     -4.30757227090087     -0.01119881773918
  C   0.35617664855722     -5.49327320116063      0.00237853536311
  C   -0.35494141521316     -1.84380483606848     -0.03518091166497
  C   -1.78127327966960     -1.84005742329934     -0.03325171830296
  C   -2.48803289148335     -3.09787094370177     -0.02180456374277
  C   -1.78476871573189     -4.27479584522183     -0.01284039250003
  C   -2.48134056111687     -0.63368550478191     -0.03323611374216
  C   -3.92408402756129     -0.62323766744324     -0.02174804573946
  C   -4.60658981396010     -1.89352461058114     -0.01677979015660
  C   -3.92956563098955     -3.06018294959861     -0.01681525950870
  C   4.59263937775597     -3.03481170628696      0.00254835601103
  C   3.91808373768656     -1.82545655046819     -0.01103066673453
  C   2.48038964688555     -1.82359160266750     -0.02168651557642
  C   1.77687493071395     -0.60668799946397     -0.03510070243269
  C   0.35399605700109     -0.61011403909735     -0.04176319610383
  C   -0.35404142506001      0.61000913028705     -0.04186493276541
  C   -1.77692132465396      0.60658355284158     -0.03516974972694
  C   -2.48043868601203      1.82349353382479     -0.02180366916578
  C   -3.91813092382471      1.82535506162147     -0.01117665730021
  C   -4.59699780426952      0.57130212758835     -0.01275941223989
  C   4.59695205521953     -0.57140646838065     -0.01264235023710
  C   3.92403329826265      0.62313328595062     -0.02168246474653
  C   2.48129632909656      0.63357463958619     -0.03320733199606
  C   1.78122355104956      1.83994014243908     -0.03332655376086
  C   0.35490158833892      1.84370341770776     -0.03530706189455
  C   -0.35260103037805      3.05828120779607     -0.02192252593710
  C   -1.77329184874667      3.05568540317532     -0.01541388720285
  C   -2.48247378939279      4.27775548541870     -0.00009706456523
  C   -3.91085603541777      4.27286634598346      0.00799036333448
  C   -4.59268944077732      3.03470826934071      0.00237553009502
  C   4.60654032711020      1.89342051722904     -0.01671806387763
  C   3.92951142028436      3.06007539229951     -0.01678168509303
  C   2.48797943521046      3.09775170579919     -0.02183199994759
  C   1.78472143736931      4.27468130691881     -0.01287944037362
  C   0.35909329316524      4.30746360270983     -0.01131377678073
  C   -0.35622074097211      5.49316518130142      0.00226164645922
  C   -1.76952562255461      5.51549851719713      0.00792522849428
  C   -2.50204271988510      6.71637860627071      0.02247477397224
  C   -3.88928889537340      6.70201136282387      0.02937398034509
  C   -4.59005494976249      5.50468732091633      0.02253231880851
  H   1.96693070273472     -7.65805660837420      0.02863636977902
  H   4.43269863576531     -7.63860615703868      0.04077359984328
  H   5.67298896516803     -5.50738845204114      0.02878851920802
  H   -0.17929766540107     -6.43568207614234      0.01006819736949
  H   -2.32134372430122     -5.21673770484945     -0.00354525918702
  H   -5.69002404498443     -1.88792235629304     -0.01048826679459
  H   -4.46225101269837     -4.00363804196509     -0.01056425355633
  H   5.67654870575236     -3.03747771455467      0.01029042979992
  H   -5.68104845544682      0.57277419279106     -0.00345303534620
  H   5.68100244181714     -0.57287858241012     -0.00330854433538
  H   -5.67659864345606      3.03737719961980      0.01009693396536
  H   5.68997465876738      1.88781805486245     -0.01041734593294
  H   4.46219004952654      4.00353435249623     -0.01049660712617
  H   2.32130218672986      5.21661998736416     -0.00356626349980
  H   0.17925248950546      6.43557459459072      0.00996751638274
  H   -1.96697348793882      7.65794871502850      0.02849861027347
  H   -4.43274073506651      7.63850306103724      0.04052210107324
  H   -5.67303505883102      5.50728668564878      0.02859613588514
  C   0.00058435297805      0.00133440669270      3.12696420355005
  O   0.99931491065794      0.59085740599003      3.13024525623989
  O   -0.99810936979348     -0.58816966196564      3.13806121868702
