92
Coordinates from ORCA-job gbm_co2_hollow_orthogonal_wB97x_d3_TZVP
  C   -5.70565891526960      4.89024645080416      0.00932550764922
  C   -5.02681344209791      6.07874148921054      0.00878788752600
  C   -3.62543807020345      6.09732078153413      0.00579526855996
  C   -2.88575569728605      4.92238469598082      0.00297356637143
  C   -1.41774439322920      4.92030961588709      0.00163489415453
  C   -0.68837621678883      6.10913048687644      0.00707269973742
  C   0.68837023550971      6.10911986539187      0.00642546962612
  C   1.41771414656906      4.92028691707646      0.00029679862784
  C   2.88572547361411      4.92233570525892      0.00026119156899
  C   3.62543354497087      6.09725742387151      0.00237056966783
  C   5.02681091155562      6.07865552852764      0.00407305931900
  C   5.70563496704931      4.89015016338287      0.00402071722915
  C   -5.67294743491775      2.43801948954482      0.00660566280831
  C   -4.99684849667031      3.66417621548501      0.00599037590434
  C   -3.57023993334441      3.68336669794520      0.00210866392315
  C   -2.85045591866001      2.44800928342183     -0.00304692696125
  C   -1.41943889737393      2.44749995954852     -0.00842422426808
  C   -0.71019621413045      3.70141684889582     -0.00424052015842
  C   0.71014074268727      3.70140525551514     -0.00491198548897
  C   1.41935771212325      2.44747681691935     -0.00977254787836
  C   2.85037989302558      2.44796158810038     -0.00570126728843
  C   3.57018855253723      3.68330418185144     -0.00121500055371
  C   4.99680028300748      3.66409077441040      0.00136375611130
  C   5.67287966385764      2.43792498191650      0.00139085358683
  C   -5.66707604816897      0.00006381576106      0.00494065081110
  C   -4.98848054843310      1.22421860989916      0.00302446794374
  C   -3.54437875981075      1.23236953232084     -0.00275605253244
  C   -2.83602240494053      0.00004241363588     -0.00767811140074
  C   -1.42423309576612      0.00003120062876     -0.01556722816515
  C   -0.72076588234344      1.23915807728744     -0.01564299916226
  C   0.72065844886283      1.23914768872280     -0.01637086239419
  C   1.42410454259736      0.00000718879181     -0.01691373007332
  C   2.83589973529442     -0.00000537932153     -0.01028778223545
  C   3.54428199656476      1.23230884823080     -0.00601626934191
  C   4.98838655173434      1.22413548917440     -0.00154290241133
  C   5.66696346862672     -0.00003017218501     -0.00022196015555
  C   -5.67298795501689     -2.43789209358406      0.00594181656782
  C   -4.98850045868182     -1.22410184159985      0.00269319071550
  C   -3.54439845083189     -1.23227359236288     -0.00308523389434
  C   -2.85049676798385     -2.44792656907043     -0.00369736976609
  C   -1.41948059153369     -2.44744407349047     -0.00906544347127
  C   -0.72078729689605     -1.23911062691912     -0.01596176364463
  C   0.72063720978651     -1.23912366612640     -0.01668095607892
  C   1.41931746467042     -2.44746776850254     -0.01039098071184
  C   2.85033832698328     -2.44797439651841     -0.00631503414397
  C   3.54425950962373     -1.23233292186038     -0.00632361001961
  C   4.98836501635145     -1.22418453223120     -0.00184536531659
  C   5.67283815314027     -2.43798512624985      0.00079095468945
  C   -5.70574008862982     -4.89011810077642      0.00799286029944
  C   -4.99690807370840     -3.66405879524216      0.00499769468921
  C   -3.57030013858776     -3.68327271440997      0.00112257549791
  C   -2.88583770071825     -4.92230480034401      0.00166012879353
  C   -1.41782705480686     -4.92025409531680      0.00034444297655
  C   -0.71025867992224     -3.70137069101451     -0.00520352977930
  C   0.71007831622385     -3.70138291499564     -0.00585813894694
  C   1.41763255892039     -4.92027841065284     -0.00095438243309
  C   2.88564364009029     -4.92234989255518     -0.00097148213235
  C   3.57012670066779     -3.68332974949457     -0.00213459868589
  C   4.99673766320846     -3.66414105291465      0.00045795905245
  C   5.70555270687501     -4.89021113919503      0.00281754594709
  C   -5.02691608503595     -6.07862403293935      0.00713510916384
  C   -3.62554157134536     -6.09722876978382      0.00415146670967
  C   -0.68847762260976     -6.10908802592321      0.00548535565264
  C   0.68826933523063     -6.10910045649322      0.00485735049373
  C   3.62533202426642     -6.09728467047122      0.00085691829665
  C   5.02670904373098     -6.07870678167440      0.00257489115565
  H   -5.57004263978005      7.01748811614800      0.01080745233239
  H   -3.12953847022031      7.05805722117975      0.00531315830952
  H   -1.19778855696133      7.06286462622318      0.01262144802396
  H   1.19780255673827      7.06284594815884      0.01149891677873
  H   3.12953818457961      7.05799587452885      0.00231745563871
  H   5.57005510468925      7.01739437954593      0.00556815380510
  H   -6.79030044737939      4.86771112317510      0.01196682172369
  H   -6.75844910822551      2.43341355885108      0.01007229006466
  H   -6.75250542310144      0.00007336074445      0.00881570928916
  H   -6.75848944546188     -2.43326489840950      0.00940354298417
  H   -6.79038109002966     -4.86755712000535      0.01063122472420
  H   -5.57016163703499     -7.01736196342184      0.00889211439305
  H   -3.12965105998652     -7.05796957106017      0.00340720376249
  H   -1.19790319395000     -7.06281664635098      0.01078365295559
  H   1.19767909350951     -7.06284008449928      0.00968902537523
  H   3.12942415739506     -7.05801678617053      0.00056886589669
  H   5.56994001107452     -7.01745356147112      0.00384389610019
  H   6.79019601583655     -4.86766727105399      0.00447939062255
  H   6.75834234669291     -2.43337023566392      0.00327573532788
  H   6.75239607555626     -0.00003577613150      0.00267158502887
  H   6.75838389908723      2.43329898024496      0.00386970952371
  H   6.79027805540285      4.86759321874799      0.00566976131142
  C   0.00164866727961     -0.00050167720414      4.18192962512725
  O   0.00119195140292     -0.00036304853981      3.02315747823090
  O   0.00211041742010     -0.00064868920569      5.34143117238955
   -  -0.00001109874721      0.00001869404904     -0.01624145205268
