91
Coordinates from ORCA-job gbm_co2_top_orthogonal_wB97x_d3_TZVP
  C   -5.70509498729774      4.89002788858696      0.01677593274519
  C   -5.02612528267905      6.07849977969264      0.01715114850419
  C   -3.62480278033655      6.09715246636596      0.01167353749883
  C   -2.88556629682169      4.92191274535943      0.00556978339905
  C   -1.41757443506586      4.91950788693710      0.00074770215781
  C   -0.68806049061960      6.10828262540942      0.00727510958824
  C   0.68865033128076      6.10810467297321      0.00294719258342
  C   1.41767188071882      4.91913137852128     -0.00910820204756
  C   2.88561337928294      4.92100423132356     -0.01210424032033
  C   3.62580787928177      6.09564186441940     -0.01241967624059
  C   5.02720285276959      6.07718227963164     -0.01051342790360
  C   5.70587639265374      4.88861117868556     -0.00748727937186
  C   -5.67306107744867      2.43768184950858      0.00952048761161
  C   -4.99670639658075      3.66370083532731      0.01024857324107
  C   -3.57012049277279      3.68298089244977      0.00420525898817
  C   -2.85061521809445      2.44742800414731     -0.00372030521148
  C   -1.41964685923212      2.44686293020556     -0.01274814820910
  C   -0.71020983045053      3.70052534920402     -0.00979431703268
  C   0.71010303464046      3.70022368299128     -0.01560716862447
  C   1.41892237692167      2.44649604686814     -0.02501493909432
  C   2.84960630631253      2.44683553885902     -0.01728375015555
  C   3.56991335087583      3.68186405323860     -0.01243255927772
  C   4.99658863189188      3.66284094168009     -0.00837170284025
  C   5.67260470637315      2.43666486792800     -0.00521138101189
  C   -5.66757139054679     -0.00065807634072      0.00352759437654
  C   -4.98913612014886      1.22356261864259      0.00337946342293
  C   -3.54492234084817      1.23181216191542     -0.00338766895118
  C   -2.83676052057021     -0.00065089286598     -0.00885767305271
  C   -1.42465964636276     -0.00043122490016     -0.01670917745622
  C   -0.72075149510117      1.23868559135406     -0.02221401462096
  C   0.72033882782945      1.23868967805231     -0.03040673309942
  C   1.42358708650062     -0.00021433571829     -0.02396780049233
  C   2.83545315591837     -0.00065593411204     -0.01579487493182
  C   3.54362968807274      1.23135989067969     -0.01311947926555
  C   4.98753721356999      1.22322149152251     -0.00633761581338
  C   5.66637271833757     -0.00078268313717     -0.00150336122729
  C   -5.67326703719409     -2.43904990731110     -0.00052339853691
  C   -4.98926109401931     -1.22496378763408     -0.00089120085708
  C   -3.54498185502774     -1.23320125777528     -0.00596491259335
  C   -2.85100869236020     -2.44903230261534     -0.00814337035633
  C   -1.42004031823445     -2.44853307940985     -0.01176620111303
  C   -0.72134909616852     -1.23999477480553     -0.01678309478499
  C   0.72038745802583     -1.23981307604897     -0.01810695403621
  C   1.41911009759846     -2.44844318223820     -0.01115401297955
  C   2.85001782134169     -2.44863189861119     -0.00714365953742
  C   3.54364343005265     -1.23283607893355     -0.00836242757973
  C   4.98764227224277     -1.22485051140586     -0.00192473526280
  C   5.67258319348754     -2.43837050535323      0.00375114638244
  C   -5.70553041695131     -4.89148479099847     -0.00366669562847
  C   -4.99709798560594     -3.66516059879944     -0.00353241654796
  C   -3.57052901339143     -3.68456654112282     -0.00619231815978
  C   -2.88600434359668     -4.92353947182780     -0.00726647069977
  C   -1.41799862213138     -4.92120477649308     -0.00672062715281
  C   -0.71052429470977     -3.70227181364656     -0.00914815939989
  C   0.70986388771393     -3.70225314452415     -0.00763281932319
  C   1.41758664444331     -4.92103133694972     -0.00276686710737
  C   2.88556927897898     -4.92279726067973      0.00073420086856
  C   3.57005796746726     -3.68374223869518     -0.00075168009152
  C   4.99668623402095     -3.66461923985587      0.00413607356665
  C   5.70587133415525     -4.89042890420483      0.00967005995750
  C   -5.02659830634732     -6.07996944208904     -0.00623944885507
  C   -3.62526271921308     -6.09874847073769     -0.00780085506349
  C   -0.68839326849740     -6.10991812502955     -0.00283373445377
  C   0.68833830977520     -6.10989325202620     -0.00079005923418
  C   3.62570014218566     -6.09742212292541      0.00615533228478
  C   5.02709496650500     -6.07893415221745      0.01044976931340
  H   -5.56942624468405      7.01721921238993      0.02161689576886
  H   -3.12880112198499      7.05782966092203      0.01151718170391
  H   -1.19744656789923      7.06198135067571      0.01711377971059
  H   1.19820363202098      7.06178363479650      0.01029886983114
  H   3.12998098359880      7.05642995368500     -0.01491310957570
  H   5.57043665449812      7.01590827563559     -0.01102303415078
  H   -6.78974252903633      4.86773021696224      0.02107085051921
  H   -6.75855168040650      2.43340852748055      0.01409548982231
  H   -6.75297832835437     -0.00061494829664      0.00762320966373
  H   -6.75876004129731     -2.43466356073853      0.00224645304395
  H   -6.79018299702191     -4.86917569082111     -0.00196158518254
  H   -5.56996368063799     -7.01866257179499     -0.00683558392203
  H   -3.12933237861820     -7.05945759924380     -0.00975922035544
  H   -1.19784210959969     -7.06362548603240     -0.00049435902327
  H   1.19774658988602     -7.06365946610122      0.00265107011271
  H   3.12986686271933     -7.05820178902900      0.00725208689944
  H   5.57028142673970     -7.01767643980594      0.01452999050885
  H   6.79049908014860     -4.86770389086408      0.01316179703074
  H   6.75808837976041     -2.43346323589193      0.00796818640336
  H   6.75182299866082     -0.00075008914320      0.00290052830448
  H   6.75811680264604      2.43177785124989     -0.00163718780158
  H   6.79050960674829      4.86579307848468     -0.00503536495198
  C   0.72115929966868      1.26151441413747      4.27640995792361
  O   0.72115815107144      1.25551490449655      3.11754577080593
  O   0.72176108457336      1.26790745640584      5.43590457602703
