92
Coordinates from ORCA-job gbm_co2_bridge_orthogonal_wB97x_d3_TZVP
  C   -5.70561691684136      4.88900937998850      0.01066640224690
  C   -5.02695357638439      6.07753380047777      0.00978256004111
  C   -3.62550706836657      6.09588499672991      0.00447147283583
  C   -2.88515290335388      4.92142514983665     -0.00047553672230
  C   -1.41716761786972      4.91976629209386     -0.00292186587374
  C   -0.68813268424675      6.10870243734951      0.00440990097047
  C   0.68862874831208      6.10883260025406      0.00357107220271
  C   1.41823607620607      4.92015296884650     -0.00372204598943
  C   2.88622978462514      4.92259193270357     -0.00339867952199
  C   3.62528974942679      6.09794761309166     -0.00216217771457
  C   5.02660693509340      6.07914553250342     -0.00000979864220
  C   5.70555917706680      4.89065888899662      0.00119379548584
  C   -5.67204477512448      2.43708674967284      0.00576440290146
  C   -4.99618579189934      3.66331926285214      0.00491962130544
  C   -3.56949840324922      3.68223391052388     -0.00168773328083
  C   -2.84922775692075      2.44727982533289     -0.00986370898871
  C   -1.41836438664370      2.44703441715161     -0.01814026044829
  C   -0.70948672884122      3.70091660090179     -0.01081695677103
  C   0.71085866094673      3.70112136668706     -0.01019177494348
  C   1.42032466200336      2.44742359068054     -0.01333492582801
  C   2.85133725528816      2.44799406255825     -0.00759873746759
  C   3.57073775739247      3.68363302761222     -0.00369700902303
  C   4.99730347214276      3.66422145698101     -0.00073111204429
  C   5.67363984583666      2.43820447033773      0.00015744693284
  C   -5.66570119864977     -0.00017395138753      0.00215761486571
  C   -4.98672965214408      1.22377156659941     -0.00029880683390
  C   -3.54290154418124      1.23175265304738     -0.00926014934791
  C   -2.83462890952587     -0.00018891971527     -0.01687115065693
  C   -1.42316888130835      0.00002736454973     -0.02688957929876
  C   -0.71988267447548      1.23900802458486     -0.02654120532951
  C   0.72137200485674      1.23908670175459     -0.02017499012415
  C   1.42525332949192     -0.00012633885171     -0.01620197891437
  C   2.83734858206959     -0.00026445387233     -0.00970866026863
  C   3.54559185776393      1.23229980411875     -0.00672232496617
  C   4.98988731344535      1.22398138524826     -0.00216858445251
  C   5.66815863778692     -0.00033369817504     -0.00039454607905
  C   -5.67208919796730     -2.43750322058535      0.00351723119972
  C   -4.98685062874371     -1.22414716243579     -0.00133791786836
  C   -3.54292696606686     -1.23207746494818     -0.00950665299357
  C   -2.84945278494112     -2.44789101326954     -0.00879884624468
  C   -1.41864607558571     -2.44779890090605     -0.01303201611629
  C   -0.71998554324486     -1.23913424606897     -0.02051770022385
  C   0.72172790590199     -1.23949598632784     -0.01668385948512
  C   1.42042067726262     -2.44803291370167     -0.01098703294521
  C   2.85138815566618     -2.44866734099515     -0.00687989410508
  C   3.54553529882626     -1.23288035993834     -0.00620115105706
  C   4.98987307616705     -1.22463206187776     -0.00200708179328
  C   5.67360161280644     -2.43888009929710      0.00012983247526
  C   -5.70573507275360     -4.88947218925064      0.00730567534010
  C   -4.99631700387189     -3.66382493131978      0.00257277628081
  C   -3.56966802017717     -3.68288884339661     -0.00238996532617
  C   -2.88526509604326     -4.92198070043945     -0.00098322423317
  C   -1.41731157326416     -4.92041446073169     -0.00324222640000
  C   -0.70952023358659     -3.70168584340659     -0.00815308474010
  C   0.71086992352913     -3.70180504401563     -0.00840978257691
  C   1.41821766937212     -4.92078960582958     -0.00454838377856
  C   2.88621364450212     -4.92328943258901     -0.00388981923903
  C   3.57074619330258     -3.68433672578810     -0.00376309480381
  C   4.99730317762219     -3.66490929988398     -0.00095138981287
  C   5.70552875019182     -4.89136744490889      0.00061462024884
  C   -5.02705572107543     -6.07803223623301      0.00733024413063
  C   -3.62566120839221     -6.09647570419537      0.00345690370893
  C   -0.68822007350804     -6.10938720810285      0.00036831672023
  C   0.68849449539761     -6.10947771299620     -0.00040341775579
  C   3.62523457003714     -6.09866356567294     -0.00275771222370
  C   5.02655117143846     -6.07983924415373     -0.00065675799229
  H   -5.57009695821457      7.01629271497671      0.01343636185339
  H   -3.12968238917765      7.05667874000484      0.00400012238673
  H   -1.19759495558189      7.06243454349112      0.01159665320609
  H   1.19807228557989      7.06251471168906      0.01018606588897
  H   3.12931373623207      7.05863027586333     -0.00357769215557
  H   5.57001437024112      7.01782481760083      0.00076829657183
  H   -6.79023859751670      4.86610784577596      0.01526372954838
  H   -6.75755409356185      2.43200611340717      0.01134092848978
  H   -6.75115859631864     -0.00014029180176      0.00785156561571
  H   -6.75759839376015     -2.43241849952877      0.00850635738124
  H   -6.79035903525219     -4.86660145581239      0.01075120254353
  H   -5.57024481130701     -7.01676494646009      0.01061537169458
  H   -3.12986823874240     -7.05728014566254      0.00400230770865
  H   -1.19767738800711     -7.06313287849564      0.00425095183241
  H   1.19793951515633     -7.06317262572676      0.00307827231938
  H   3.12925468189966     -7.05934193669231     -0.00389855002280
  H   5.56994927587008     -7.01852467552986      0.00012592857196
  H   6.79018691964786     -4.86916603044584      0.00245644444980
  H   6.75909257703466     -2.43467143046995      0.00261230597362
  H   6.75356038741320     -0.00034383790680      0.00253798992502
  H   6.75913181581313      2.43400170619062      0.00277878268808
  H   6.79021735345683      4.86843071681925      0.00313631749048
  C   -1.08438540315712      0.62532261084371      4.26397723814864
  O   -1.08047442511256      0.62329119677841      3.10510204970750
  O   -1.08904990993705      0.62752694021834      5.42346983859396
   -  -1.06889822522844      0.61757231207405     -0.02669641905790
