92
Coordinates from ORCA-job gbm_co2_hollow_parallel_wB97x_d3_TZVP
  C   -5.70602547171020      4.88977622003563      0.01510746041777
  C   -5.02735076959599      6.07837950794793      0.01741258860281
  C   -3.62600609244859      6.09721503517335      0.01102437670204
  C   -2.88621630038124      4.92237275056968      0.00194534958505
  C   -1.41829352259821      4.92060301893579     -0.00334020592705
  C   -0.68888409399027      6.10935569788303      0.00379479669748
  C   0.68785194578930      6.10934523317847     -0.00003068525286
  C   1.41740715013670      4.92071017732307     -0.01152607312535
  C   2.88533009612061      4.92281403128882     -0.01352467999315
  C   3.62491265301603      6.09772961627063     -0.01120789857608
  C   5.02631966295246      6.07927730639317     -0.00932634676773
  C   5.70514837346495      4.89081910275255     -0.00904771032153
  C   -5.67294439789622      2.43760621720440      0.00361276125148
  C   -4.99709403763255      3.66383238577076      0.00552752893459
  C   -3.57056859148402      3.68333975179260     -0.00166575346154
  C   -2.85084250371966      2.44810658133684     -0.01289975234226
  C   -1.42002640487461      2.44825075116978     -0.02122106479440
  C   -0.71050379792544      3.70187578188848     -0.01493824383120
  C   0.70992004536418      3.70183502522760     -0.01918203905855
  C   1.41943994866760      2.44832483464803     -0.02876678038509
  C   2.85019111631278      2.44860665719349     -0.02276439551003
  C   3.56980019522928      3.68382549127469     -0.01607775067260
  C   4.99633774138498      3.66475246897401     -0.01238420891325
  C   5.67244612868255      2.43873150448479     -0.01129637412723
  C   -5.66690712839060     -0.00031054492214     -0.00493869997656
  C   -4.98851862326550      1.22381604410800     -0.00567434736133
  C   -3.54445358674000      1.23208816830437     -0.01566507593037
  C   -2.83642383413815     -0.00004339765232     -0.02595178950926
  C   -1.42476441571294     -0.00001661558336     -0.03890073610055
  C   -0.72097217660669      1.23946206739879     -0.03521336977529
  C   0.72104233226651      1.23997263583037     -0.03974080789628
  C   1.42457135032340      0.00071784191316     -0.04029685839619
  C   2.83622228948314      0.00073869391175     -0.02867107600759
  C   3.54404753004436      1.23298435560598     -0.02265796299956
  C   4.98799950257164      1.22495481451597     -0.01471729001774
  C   5.66673521862684      0.00100201063034     -0.01019588786604
  C   -5.67257912456826     -2.43809660784461     -0.00646294131785
  C   -4.98820469641389     -1.22427997527938     -0.01029342756587
  C   -3.54423957864848     -1.23231810657491     -0.01955358680826
  C   -2.85035855949527     -2.44794496434006     -0.02053189836115
  C   -1.41961413801335     -2.44763770505130     -0.02791094713766
  C   -0.72123290151945     -1.23928080748865     -0.03931610620054
  C   0.72078983280804     -1.23876084244665     -0.03625248665694
  C   1.41986352921260     -2.44755126114889     -0.02301396475711
  C   2.85068883332198     -2.44738378587238     -0.01598141801234
  C   3.54426551438084     -1.23136953656768     -0.01919467527808
  C   4.98831852354175     -1.22311320100220     -0.01051236497564
  C   5.67282193029231     -2.43686160047269     -0.00203487628880
  C   -5.70520153664226     -4.89020864622456     -0.00462348505389
  C   -4.99644962233834     -3.66410446651573     -0.00837762288046
  C   -3.56992096249734     -3.68319363869165     -0.01340433392172
  C   -2.88544513231821     -4.92217671206597     -0.01168951159976
  C   -1.41752143031603     -4.92002885923199     -0.01100856734275
  C   -0.71006197003514     -3.70113687235827     -0.01916896346276
  C   0.71036722922979     -3.70118240748084     -0.01623559610500
  C   1.41818959019544     -4.91989920488209     -0.00541975122273
  C   2.88611639793090     -4.92162816283518     -0.00148968217016
  C   3.57046147683207     -3.68258827543221     -0.00555899483707
  C   4.99699706698435     -3.66310156405821      0.00031714636004
  C   5.70599018723404     -4.88901057101501      0.00909564469874
  C   -5.02635955580066     -6.07866311955285     -0.00576136245224
  C   -3.62495972937302     -6.09713516284755     -0.00892320291028
  C   -0.68792772763143     -6.10865026183308     -0.00030308990545
  C   0.68881266925486     -6.10866059806753      0.00225640631224
  C   3.62597433821804     -6.09643034861307      0.00676487767254
  C   5.02732943118083     -6.07761573330381      0.01187419583955
  H   -5.57073808232019      7.01700201248059      0.02440324321529
  H   -3.13022250957064      7.05800442328565      0.01312469319140
  H   -1.19830209139231      7.06304002057003      0.01359192415441
  H   1.19724738200775      7.06306651599412      0.00754276277551
  H   3.12897792691266      7.05845299078800     -0.01101919656346
  H   5.56949724932726      7.01804070244087     -0.00743699697964
  H   -6.79064580460832      4.86709023110359      0.02041114701110
  H   -6.75841838670550      2.43285498736026      0.01032648209711
  H   -6.75229873242896     -0.00042993837294      0.00203924163828
  H   -6.75805800397504     -2.43351950707917     -0.00083819364005
  H   -6.78983410618796     -4.86769949201464     -0.00102955372881
  H   -5.56954596575361     -7.01742404150831     -0.00354467233724
  H   -3.12901729589467     -7.05785290067100     -0.00941329855641
  H   -1.19731944362463     -7.06236775082376      0.00762011350310
  H   1.19823630812895     -7.06234955486894      0.01154612267385
  H   3.13019972073481     -7.05722502375464      0.00919899489947
  H   5.57070931846135     -7.01624381371485      0.01824312499373
  H   6.79061328740530     -4.86629591459258      0.01342277785745
  H   6.75830254406007     -2.43207084550319      0.00368258164173
  H   6.75213553291317      0.00112058402516     -0.00420508104641
  H   6.75793074429287      2.43411505946873     -0.00663700313932
  H   6.78978234167406      4.86827781439421     -0.00645738711968
  C   0.00162604070276     -0.01024340185986      3.22695165442820
  O   1.06661209050244      0.44757064440311      3.22790629659820
  O   -1.06330179849889     -0.46809064510448      3.23626312345064
   -  0.00000131750410      0.00034661987459     -0.03958931197159
