75
Coordinates from ORCA-job gbm_co2_bridge_parallel_wB97x_d3_TZVP
  C   0.70208555083885      1.22223080944180     -0.02994521415799
  C   -0.70770560205570      1.22272963869704     -0.03483744565109
  C   -1.41283157552951      0.00130076705822     -0.03483537784801
  C   -0.70740851440060     -1.21929837503125     -0.02995315201493
  C   0.70203312283565     -1.21889151343112     -0.02717320334946
  C   1.40655366526031      0.00148500392448     -0.02718143662073
  C   -1.42451082698788      2.46317929310618     -0.02856805860910
  C   -2.83439022312292      2.46156939265660     -0.02415636130835
  C   -3.54914239368429      1.22346587275484     -0.02414178747566
  C   -2.84550410507916      0.00173432890101     -0.02855395588900
  C   1.41793750506008      2.46291970162759     -0.01970488422036
  C   0.71166340273682      3.68351376318734     -0.01530633641966
  C   -0.71842213277873      3.68354669042160     -0.01881570283854
  C   2.83867432527322      0.00173106032434     -0.01628581104682
  C   3.54281653719393      1.22343266149809     -0.01013247195219
  C   2.82805587640901      2.46183232684080     -0.01113974089455
  C   1.41797515421742     -2.45920183156028     -0.01629807911877
  C   2.82800056747315     -2.45814336816742     -0.00937679916901
  C   3.54286426467475     -1.21984827726092     -0.00936620523781
  C   -1.42384715365424     -2.45964883034805     -0.01974308467718
  C   -0.71775343246907     -3.68023704268137     -0.01120197087927
  C   0.71212378476335     -3.67991809234601     -0.01017946115773
  C   -3.54922744018019     -1.21999920344572     -0.01882939536872
  C   -2.83406035097859     -2.45840508813248     -0.01534989855452
  C   -4.96590609028560      1.21884780035168     -0.01337903734113
  C   -5.64590072139480      0.00169256632063     -0.00746210424067
  C   -4.96635441187627     -1.21542715261194     -0.00926134885419
  C   -5.65558642261412     -2.48277221679339      0.00009537144497
  C   -4.98088482822735     -3.65133100063466      0.00211491010045
  C   -3.53863921639712     -3.68797878697990     -0.00424561140340
  C   -2.82436601184356     -4.88522888006488      0.00134869519776
  C   -1.43027825023334     -4.90508741625184     -0.00149273299322
  C   -0.67749352605463     -6.13572407623408      0.00663555247524
  C   0.67187710265114     -6.13549912625304      0.00713844199816
  C   1.42458553878967     -4.90480052922754     -0.00008292166604
  C   2.81861552812291     -4.88498628768791      0.00394376067482
  C   3.53263177827523     -3.68759724079489      0.00027980707718
  C   4.97481969656419     -3.65102432222130      0.00758251914912
  C   5.64944522250873     -2.48244023873324      0.00759991864968
  C   4.95992918617227     -1.21523869509013      0.00030857786256
  C   5.63979141605051      0.00186784393671      0.00400727931067
  C   4.95983508664799      1.21897868390589     -0.00000637236499
  C   5.64919055004730      2.48625031781924      0.00725467382538
  C   4.97459839155546      3.65489208654328      0.00676655343298
  C   3.53243662446545      3.69137999232847     -0.00139027850973
  C   2.81810280215671      4.88870522532943      0.00146456172347
  C   1.42411109845691      4.90854858597189     -0.00415921786005
  C   0.67114721114594      6.13917823968479      0.00221081617826
  C   -0.67820587839979      6.13909125208102      0.00016108235142
  C   -1.43104018491175      4.90846420939446     -0.00923752844372
  C   -2.82487275531460      4.88829193583351     -0.00744957151986
  C   -3.53886467586009      3.69076441850166     -0.01338470069007
  C   -4.98092312726872      3.65437625646864     -0.00621610517200
  C   -5.65551841386524      2.48584425579184     -0.00621308794522
  H   -6.73207368495371      0.00188429991667      0.00099266972047
  H   -6.74089911618408     -2.47531459006326      0.00613495495104
  H   -5.51700589579996     -4.59500271569943      0.00965295789377
  H   -3.36745123780269     -5.82590014566432      0.00938979766026
  H   -1.22657212222885     -7.07192324591446      0.01300704895993
  H   1.22113221138268     -7.07159881498031      0.01393901738401
  H   3.36175531328364     -5.82562473229818      0.01170676630993
  H   5.51097295059337     -4.59468819975930      0.01403564043215
  H   6.73475815261251     -2.47484873864759      0.01405723951975
  H   6.72597790929933      0.00191072758820      0.01178926904844
  H   6.73450489180536      2.47872421504195      0.01408277837363
  H   5.51074998179628      4.59855396422896      0.01316505251148
  H   3.36114186292533      5.82940284871402      0.00954093803789
  H   1.22025116523101      7.07535453690936      0.00977962482836
  H   -1.22740108172085      7.07522340599600      0.00621033389068
  H   -3.36820595164489      5.82880280811150      0.00101179238525
  H   -5.51698679678166      4.59806704024544      0.00096069725029
  H   -6.74080991244689      2.47816272423927      0.00095883386633
  C   -0.99350613913185      0.57492814899281      3.12460400611591
  O   0.01056488322071     -0.00432690921774      3.13473159925903
  O   -1.99770510833385      1.15425898354074      3.13007091361300
