15
Coordinates from ORCA-job gbm_co2_bridge_parallel_pbe_d3_TZVP
  C   0.68254273493026      1.21716579006598     -0.03844939331059
  C   -0.71180604397119      1.21721905292110     -0.08824517753392
  C   -1.40999589777343      0.00779267317380     -0.08811138192354
  C   -0.71265927029511     -1.19964972807307     -0.03817550917103
  C   0.68237662114296     -1.19894770805538      0.01057062678178
  C   1.37956800602032      0.00875147627833      0.01044131261109
  H   1.22557787915088      2.15683471913517     -0.04159266670701
  H   -1.25500348906792      2.15595608582566     -0.12684826328064
  H   -2.49456842266340      0.00873874127890     -0.12659404113499
  H   -1.25483133694673     -2.13981788841358     -0.04112104354182
  H   1.22411828541042     -2.13825391563177      0.05051201438961
  H   2.46390552150081      0.00934905970888      0.05027572247234
  C   -0.98985297325969      0.57123930557129      3.17198616824798
  O   0.01331231553096     -0.00699342393667      3.28150604306776
  O   -1.99595392970913      1.15117076015136      3.08332558903299
