48
Coordinates from ORCA-job gbm_co2_bridge_parallel_dsd_d3_TZVP
  C   2.84463029828580      2.43793961241958     -0.00209808355562
  C   1.41818233704701      2.44265536581419     -0.00970736026858
  C   0.70701242075825      3.67933038481856     -0.00005358353595
  C   1.43595064996970      4.87859880396038      0.01261416159085
  C   2.82472061391505      4.86475653076717      0.01806467749857
  C   3.52496511108978      3.66534830765912      0.01005556601048
  C   0.70924702769422      1.22118360962003     -0.01558523861478
  C   -0.71164069025200      1.22484877028987     -0.02602099667951
  C   -1.41881344171816      2.47409611490257     -0.02038655629035
  C   -0.71061127413249      3.65659939390246     -0.00925148681906
  C   3.52700942609158      1.19529430916221     -0.00926091162985
  C   2.85054405489618     -0.00556895376686     -0.01740207536073
  C   1.41563694915082     -0.01124638029513     -0.02780149663512
  C   0.71047004701688     -1.22542915592366     -0.01840241407262
  C   -0.71006556565183     -1.22267778272875     -0.02339967546807
  C   -1.41733782195265      0.00974216447211     -0.01946182130368
  C   -2.85283909626099      0.00484178623075     -0.02582213550353
  C   -3.53648321972267      1.27059471972569     -0.03428833861489
  C   -2.85696541700454      2.44064705894749     -0.03331360758836
  C   -1.41967580689648     -2.44368019014052     -0.00708855312887
  C   -2.84627178219912     -2.43887321128845     -0.00500869001403
  C   -3.52900242992144     -1.19626176579759     -0.01363736085370
  C   3.53488502832874     -1.27134162502934     -0.01847840195000
  C   2.85516463833205     -2.44172198918616     -0.01621607159583
  C   1.41662279832245     -2.47461287071347     -0.01650453201532
  C   0.70879573735058     -3.65724305599498     -0.00564060010150
  C   -0.70870368839360     -3.68034438007122     -0.00187550143523
  C   -1.43768393962076     -4.87949784939157      0.01114716035567
  C   -2.82648500174922     -4.86567351093536      0.01586053265869
  C   -3.52672257123024     -3.66628743495274      0.00851142266762
  H   0.90035728893309      5.81989076662597      0.01894351232044
  H   3.36816492494232      5.80052271203961      0.02794581907541
  H   4.60797046933501      3.66671401906770      0.01486174612786
  H   -1.24738922212970      4.59891929624944     -0.00564456918651
  H   4.61150224589629      1.19607917554204     -0.00255170072399
  H   -4.61962691812217      1.26635948277059     -0.03879857827891
  H   -3.39005307542636      3.38354322957216     -0.03417553735247
  H   -4.61348876846627     -1.19700555021563     -0.01436624877868
  H   4.61811913571964     -1.26698798603589     -0.01585786567663
  H   3.38819616124732     -3.38474811051886     -0.01457697477690
  H   1.24552229948844     -4.59961937457690     -0.00086632534580
  H   -0.90219446627941     -5.82085389610225      0.01645569795171
  H   -3.36995733237650     -5.80142295323256      0.02575903370377
  H   -4.60973650538894     -3.66756266321640      0.01136650290654
  C   -1.05894399364293      0.62616450209712      3.10746347043686
  O   -0.05303662996439      0.04114150642559      3.11894775777042
  O   -2.06483942877964      1.21113130197670      3.10829001163258
   -  -1.06824457652867      0.61459476505519     -0.02273477955242
