47
Coordinates from ORCA-job gbm_co2_top_parallel_dsd_d3_TZVP
  C   2.84493676441020      2.43934656739067     -0.02290614789660
  C   1.41900591639976      2.44384329725593     -0.03458325004396
  C   0.70853122205293      3.68019013178894     -0.02358284406523
  C   1.43710513425539      4.87937125597619     -0.01710288292416
  C   2.82570367856131      4.86580082462080     -0.01338501324665
  C   3.52554279829918      3.66637138767937     -0.01645502079341
  C   0.70950515106926      1.22229669418410     -0.02489979837306
  C   -0.71170658881908      1.22524624984775     -0.02746454364686
  C   -1.41741661266756      2.47496845925626     -0.01463369766621
  C   -0.70875072211284      3.65749266739835     -0.01659654809744
  C   3.52748675401623      1.19704790152226     -0.01518298884816
  C   2.85148194298459     -0.00444509463501     -0.01312633598907
  C   1.41629588170338     -0.01071929154473     -0.02671144862120
  C   0.71065255207106     -1.22483664347279     -0.01561454566781
  C   -0.70978982278715     -1.22136121350542     -0.02344415888362
  C   -1.41665261870448      0.01072779937084     -0.01638993927239
  C   -2.85164422717698      0.00527369249493     -0.01215576664236
  C   -3.53564272262477      1.27130474230131     -0.00473735506030
  C   -2.85606398890887      2.44193626070046     -0.00677365450125
  C   -1.41907472127987     -2.44255185220304     -0.01182986678450
  C   -2.84545398972559     -2.43802146728280     -0.00937194718857
  C   -3.52815855700295     -1.19551807728980     -0.00739452098611
  C   3.53565160813834     -1.27042768329066     -0.00446600921242
  C   2.85556342378271     -2.44076525951507     -0.00238404405133
  C   1.41696606695739     -2.47397997123024     -0.01058477501377
  C   0.70916445461371     -3.65660468118369     -0.00581205773918
  C   -0.70835745188530     -3.67926796446276     -0.00856525036055
  C   -1.43722527974440     -4.87853990321851     -0.00228900395244
  C   -2.82598566544484     -4.86486060170757     -0.00065752790573
  C   -3.52600040977263     -3.66534930579644     -0.00307233021719
  H   0.90132630902298      5.82054519167938     -0.00995710096073
  H   3.36918912794406      5.80154142970168     -0.00641207207051
  H   4.60852748327805      3.66735409138353     -0.00877905194102
  H   -1.24519861291660      4.60002874607773     -0.00754011091080
  H   4.61198403406389      1.19811516901143     -0.00559105970883
  H   -4.61889240676079      1.26713301255328      0.00094897117699
  H   -3.38915944482993      3.38493410795890     -0.00043450777455
  H   -4.61266899487823     -1.19642025201298     -0.00277105645550
  H   4.61889095971612     -1.26621924797666      0.00246334247463
  H   3.38869111317543     -3.38374878544134      0.00390252969375
  H   1.24575767943666     -4.59906343794454     -0.00058593872377
  H   -0.90163560075577     -5.81985972795076      0.00107029595271
  H   -3.36948898398139     -5.80062889177577      0.00415146065640
  H   -4.60902426830293     -3.66657003571052     -0.00034020388407
  C   0.71517524160489      1.22089072623290      3.14412007854489
  O   1.30233321415185      2.22558800433301      3.14351526139762
  O   0.12797617937360      0.21616297843111      3.15441743618431
