76
Coordinates from ORCA-job gbm_co2_hollow_orthogonal_dsd_d3_TZVP
  C   0.70759053673936      1.22507474628953     -0.02034607669756
  C   -0.70694629500697      1.22493232378954     -0.01392071848955
  C   -1.41423958860148     -0.00007332468833     -0.02023324015817
  C   -0.70684590434245     -1.22502226182253     -0.01394755734027
  C   0.70769187809400     -1.22506055964715     -0.02037305011177
  C   1.41484389633353      0.00003620484905     -0.01406062999630
  C   -1.41736078941942      2.45530546866692     -0.01171214543857
  C   -2.83317029277490      2.45478997956368      0.00034971622570
  C   -3.54246350805793      1.22623464093951     -0.00408331379170
  C   -2.83485528834891     -0.00013014007914     -0.00412630719306
  C   1.41785647350133      2.45539888166271     -0.00451476845690
  C   0.70950242397798      3.68133203278598     -0.00451747435166
  C   -0.70910363376911      3.68123086533042      0.00013148791114
  C   2.83559018063980      0.00009267033203     -0.01210960341523
  C   3.54304168994038      1.22648151278316     -0.00029071748936
  C   2.83372335494962      2.45502271818624     -0.00472220548729
  C   1.41805297898480     -2.45532757890539     -0.00455242584167
  C   2.83391985687944     -2.45483879046128     -0.00475793001933
  C   3.54313939818771     -1.22624056021885     -0.00031032440838
  C   -1.41716437304020     -2.45545331100841     -0.01174648811347
  C   -0.70881089025841     -3.68132351131029      0.00008508674701
  C   0.70979541331422     -3.68131554058285     -0.00456648844423
  C   -3.54236579374037     -1.22655100826980     -0.00409665013852
  C   -2.83297413994756     -2.45504929556596      0.00032318218155
  C   -4.96683982827449      1.22024424757544      0.00806255953918
  C   -5.64626589944401     -0.00024218501917      0.01047879315918
  C   -4.96674279772758     -1.22067452367135      0.00805022308818
  C   -5.65061071268665     -2.47738187364502      0.01251030707386
  C   -4.97028691164055     -3.65561744672729      0.01217809962077
  C   -3.54002832878386     -3.69162053669140      0.00460698806034
  C   -2.82277131329821     -4.89026398417810      0.00807737197786
  C   -1.42608628288509     -4.91199374373768      0.00435506464899
  C   -0.67968019523379     -6.13257421015532      0.01165339845932
  C   0.68086287293563     -6.13252777677930      0.01174470533827
  C   1.42717171624723     -4.91186823486625      0.00730261073743
  C   2.82385665637793     -4.89002689485020      0.00949295237339
  C   3.54101973447401     -3.69132545715318      0.00710112498496
  C   4.97129461898795     -3.65522040162853      0.01132290427775
  C   5.65151723437300     -2.47692632812238      0.01102276258028
  C   4.96756911405617     -1.22028197070896      0.00372515292253
  C   5.64699422069467      0.00020417670209      0.00722281612815
  C   4.96747205791843      1.22063627188891      0.00374466273973
  C   5.65132038541299      2.47733465347852      0.01106044542059
  C   4.97100356530860      3.65557423998181      0.01137426717171
  C   3.54072577436553      3.69156543728726      0.00715201578455
  C   2.82346881561766      4.89021024735543      0.00955657947285
  C   1.42678233142113      4.91194088044341      0.00736556624179
  C   0.68037805330759      6.13254244995493      0.01181746702370
  C   -0.68016502161167      6.13248315628576      0.01172182313643
  C   -1.42647572983024      4.91184467287100      0.00440952800837
  C   -2.82315914211272      4.89000487762987      0.00812425349329
  C   -3.54032228342795      3.69130486762752      0.00464135860213
  C   -4.97057788705297      3.65518727633012      0.01220787574014
  C   -5.65080765004276      2.47689740781908      0.01253194719005
  H   -6.73083536520727     -0.00028510854848      0.01816073480231
  H   -6.73388786175621     -2.47401846257301      0.01888821489327
  H   -5.50894232056610     -4.59549853277208      0.01604897715058
  H   -3.36502642245226     -5.82956714059937      0.01241248873256
  H   -1.22423932637153     -7.06904705555128      0.01550340637492
  H   1.22548661867588     -7.06895067601690      0.01792142317674
  H   3.36617893705921     -5.82927139963832      0.01696566722290
  H   5.51002079021043     -4.59504876547181      0.01749130094845
  H   6.73480642206701     -2.47347771787115      0.01470694851437
  H   6.73158296354480      0.00024714442367      0.01137992988919
  H   6.73460981203386      2.47397212686157      0.01474767633611
  H   5.50965464853239      4.59544557940573      0.01755336820936
  H   3.36571603343180      5.82949796913023      0.01704072292277
  H   1.22492949156037      7.06900732111537      0.01800640670619
  H   -1.22479628568989      7.06891405050481      0.01557656720559
  H   -3.36548861761261      5.82926510068299      0.01246372545728
  H   -5.50930819361209      4.59502547101677      0.01607938075027
  H   -6.73408452411352      2.47344783951480      0.01891204996252
  C   -0.00859561169137      0.00046123893571      4.08020370889233
  O   -0.00605447915193      0.00032608360431      2.91675975611909
  O   -0.01113286166020      0.00059955687977      5.24381079429502
   -  0.00034640108873     -0.00001908094916     -0.01714823124000
