76
Coordinates from ORCA-job gbm_co2_hollow_parallel_dsd_d3_TZVP
  C   0.70832654267045      1.22559965506615     -0.04675098815764
  C   -0.70688735374556      1.22514103633897     -0.03980748790827
  C   -1.41499748608621     -0.00028014452071     -0.04658907096084
  C   -0.70763258576416     -1.22552202697245     -0.03907978122153
  C   0.70759258370053     -1.22522508950010     -0.04603080773958
  C   1.41553561549885      0.00028175165862     -0.03924085484133
  C   -1.41757347125183      2.45613232909346     -0.03239467690903
  C   -2.83319344895837      2.45502985666475     -0.01780096777926
  C   -3.54247227493167      1.22633284179248     -0.02138408868054
  C   -2.83543502605091     -0.00006568489298     -0.02399796491498
  C   1.41841000065371      2.45564185366669     -0.02407614497850
  C   0.70997801229269      3.68120413355669     -0.02115089767647
  C   -0.70870702231662      3.68146454436173     -0.01757963387558
  C   2.83614780117895      0.00004940369826     -0.03137768453680
  C   3.54302505707633      1.22625004233609     -0.01410916148523
  C   2.83386419473902      2.45472981840209     -0.01859523978080
  C   1.41818331778574     -2.45608525249151     -0.02533683834254
  C   2.83388628913223     -2.45508419325013     -0.02261772663670
  C   3.54304499540659     -1.22633321353051     -0.01715288285107
  C   -1.41780646405050     -2.45574109794170     -0.03098010996997
  C   -0.70931165969436     -3.68116403580667     -0.01636527386977
  C   0.70936246457054     -3.68154440317346     -0.02211839694880
  C   -3.54243188284191     -1.22631497349886     -0.01831307482024
  C   -2.83314258662806     -2.45471987903603     -0.01356300510416
  C   -4.96672950120678      1.22057621141111     -0.00361463141747
  C   -5.64600528625513      0.00009379053366      0.00281658827497
  C   -4.96661017051472     -1.22035143973613     -0.00021992180072
  C   -5.65065897706501     -2.47688778040561      0.01012703986900
  C   -4.97043664756356     -3.65508944463377      0.01010876319794
  C   -3.54024778864342     -3.69105579668069     -0.00300859964966
  C   -2.82311548735865     -4.88970419193481      0.00159409876183
  C   -1.42652151834370     -4.91174600190569     -0.00608958296157
  C   -0.68025590084214     -6.13237298997944      0.00376189908074
  C   0.68025995442478     -6.13264169601469      0.00212617488403
  C   1.42666536636965     -4.91208955888711     -0.00634098137749
  C   2.82333046243362     -4.89009503380155     -0.00312058341373
  C   3.54083217224338     -3.69161794234979     -0.00690447581093
  C   4.97107222231358     -3.65559017263596      0.00097032192442
  C   5.65122462900345     -2.47727702847452      0.00225132575223
  C   4.96738740778428     -1.22060475987408     -0.00733204991067
  C   5.64667640063390     -0.00013128735978      0.00023062386565
  C   4.96729024861591      1.22031734656005     -0.00398644082996
  C   5.65133076558813      2.47683210439494      0.00914883089742
  C   4.97112317751592      3.65504373505229      0.00960547672626
  C   3.54090445398034      3.69100589716582     -0.00039694407066
  C   2.82377161980641      4.88965486069578      0.00300903657407
  C   1.42717186555137      4.91169508457183     -0.00323514043177
  C   0.68090742303354      6.13234643965395      0.00394356623521
  C   -0.67960997341925      6.13260724767591      0.00219133507372
  C   -1.42602063605687      4.91208424902842     -0.00916784802823
  C   -2.82268688633527      4.89008661950003     -0.00443381495040
  C   -3.54019802531769      3.69161366026772     -0.00942836491419
  C   -4.97041600412569      3.65556875487265      0.00164336767041
  C   -5.65058487554858      2.47726192303810      0.00331194748949
  H   -6.73051822351103      0.00007529616977      0.01526815200800
  H   -6.73387484300745     -2.47333994832560      0.02138466889689
  H   -5.50902956574352     -4.59494841562132      0.01911454970079
  H   -3.36547156206555     -5.82889651162249      0.01101121455890
  H   -1.22497957433704     -7.06870678060245      0.01165740685670
  H   1.22476423403806     -7.06908943093769      0.01086263543023
  H   3.36555348659002     -5.82936036821401      0.00752883386280
  H   5.50972916523416     -4.59541632331546      0.00953631062596
  H   6.73447908158896     -2.47380984345567      0.00968525669938
  H   6.73122300753579     -0.00011857941596      0.00928308251499
  H   6.73457049134803      2.47328019329399      0.01783803384198
  H   5.50970837606924      4.59488218320082      0.02092307388614
  H   3.36610656054993      5.82882296684834      0.01556922891866
  H   1.22561874797717      7.06866466314208      0.01420687706457
  H   -1.22411233139325      7.06907431646534      0.00875506724353
  H   -3.36491873306032      5.82937552344497      0.00328393815369
  H   -5.50908343492386      4.59540625659232      0.00805924861772
  H   -6.73381806260570      2.47380125413510      0.01335099328415
  C   -0.00796759268797      0.00032662319761      3.15111984175947
  O   0.96189805995040      0.64346465859952      3.15357277539275
  O   -0.97782579160361     -0.64279908305774      3.15775677213480
   -  0.00032540097026      0.00000127770901     -0.04291521817242
