39
Coordinates from ORCA-job gbm_co2_bridge_parallel_pbe_d3_TZVP
  C   0.70504496093463      1.23966547043917     -0.03042506391499
  C   -0.72097856846733      1.24015267174914     -0.04113655915415
  C   -1.43426252965494      0.00475916222023     -0.04101702593500
  C   -0.72086212675872     -1.22998864115537     -0.03008921963434
  C   0.70468867362687     -1.22954838858176     -0.02193498241191
  C   1.41740227832228      0.00486787499150     -0.02212517382024
  C   -1.43382714463376      2.47358907807082     -0.04374732197910
  C   -2.85551171307659      2.44262967038385     -0.05004669008012
  C   -3.54287275813990      1.25211737837808     -0.04997282099498
  C   -2.85887379186997      0.00541889193342     -0.04354829373509
  C   1.41685630791713      2.47330183841232     -0.02118407142194
  C   0.67889772757626      3.68932121157255     -0.02382838069893
  C   -0.69622669070625      3.68962400724979     -0.03487681926957
  C   2.84135602180341      0.00502036884194     -0.00649782859561
  C   3.52588873886348      1.25176128718387     -0.00056774054534
  C   2.83880113552114      2.44276272239574     -0.00715862432968
  C   1.41649469799438     -2.46282319939303     -0.00612029735945
  C   2.83836436593235     -2.43235725215354      0.00598042332928
  C   3.52586749815854     -1.24160332394035      0.00579757762639
  C   -1.43336026197217     -2.46323252712769     -0.02051798054654
  C   -0.69597265185898     -3.67941793989622     -0.00629112884644
  C   0.67901028737220     -3.67899171760317      0.00015984634865
  C   -3.54322889294648     -1.24134681582572     -0.03434565241928
  C   -2.85544643758422     -2.43210854795174     -0.02306056788784
  H   -3.39806670947197      3.39045124536037     -0.04962366831896
  H   -4.63498682381307      1.24809516656277     -0.04944748491859
  H   1.22846400986137      4.63322737598358     -0.01599304150394
  H   -1.24592277546036      4.63339919469076     -0.03548116747179
  H   4.61806083620334      1.24744717979311      0.01141269820117
  H   3.38137914031825      3.39068512716837     -0.00070189941638
  H   3.38078271748110     -3.38031768323304      0.01765354201666
  H   4.61803657699270     -1.23739819638209      0.01732946589642
  H   -1.24564212342729     -4.62324450213449      0.00041768673334
  H   1.22880617877775     -4.62269655390711      0.01228168361470
  H   -4.63540940815819     -1.23714737496731     -0.03484175889982
  H   -3.39814520464249     -3.37997721097191     -0.01495280033034
  C   -0.99366173885850      0.57032479460284      3.23730146275246
  O   0.02280961130935     -0.01074929470794      3.20851979740761
  O   -2.00977341346535      1.15119445194827      3.28194388051366
