70
Coordinates from ORCA-job gbm_co2_hollow_parallel_wB97x_d3_TZVP
  C   5.64712419292745      1.24892310560559      0.00294004385329
  C   4.94138599476583      0.01547927497313     -0.00362130250762
  C   5.65375548794917     -1.21417647775915      0.00645725039170
  C   7.05362548481033     -1.18496080847656      0.02108866129848
  C   7.73625863752956      0.02300824522659      0.02649462135629
  C   7.04746206523915      1.22706528309048      0.01795597599091
  C   3.52254535673241      0.01163482046685     -0.01915845386306
  C   2.81909584366651     -1.21799991107617     -0.02136820768428
  C   3.55181587506325     -2.46068789262601     -0.00976452760124
  C   4.92018150432933     -2.43876450165294      0.00256191198562
  C   1.41782381927791     -1.22589670844289     -0.03271971107186
  C   0.69722032707210     -2.46484271133883     -0.02752173138296
  C   1.44508849969551     -3.71186960020579     -0.01786258201817
  C   2.79982077781107     -3.69337528961653     -0.01044998575876
  C   -0.68270015588117     -2.46894864524549     -0.02784099266970
  C   -1.42316637088618     -3.72038280131460     -0.01841834816308
  C   -0.65502086734072     -4.95801420039800     -0.01488297644851
  C   0.68429876741022     -4.95403783749275     -0.01460750045808
  C   4.90727332154447      2.46927559074761     -0.00391902618570
  C   3.53864404405691      2.48323731478746     -0.01873564100104
  C   2.81284907994499      1.23715846281202     -0.02960702537721
  C   1.41176794061202      1.23866161971498     -0.04430478707908
  C   0.70312134124280      0.00034548177397     -0.04572013308269
  C   -0.70321128138553     -0.00386833553126     -0.04609357207877
  C   -1.41063809361091     -1.23431127129387     -0.03324646424137
  C   -2.81192596109805     -1.23469932099672     -0.02207827910870
  C   -3.53727619421288     -2.48170180793516     -0.01073036582964
  C   -2.77798728638762     -3.70991398411463     -0.01140300241656
  C   2.77893069169562      3.71054150218630     -0.02085924424128
  C   1.42402967104622      3.71873445342603     -0.03178979835462
  C   0.68669865222909      2.46546740096238     -0.04444588909042
  C   -0.70125289707202      2.46131645480370     -0.04400419670749
  C   -1.41912435240008      1.23023340318445     -0.04416848198181
  C   -2.82019467539350      1.22046570798558     -0.02947648652110
  C   -3.52263311158031     -0.00924367669086     -0.01953085111130
  C   -4.94146996002287     -0.01378688240066     -0.00407274342877
  C   -5.64655258810383     -1.24764014908442      0.00560891693540
  C   -4.90574772352257     -2.46787090999836      0.00147845281475
  C   0.65493449844777      4.95565257911840     -0.02707072425432
  C   -0.68429990475660      4.95167241611238     -0.02675977931285
  C   -1.44603571097606      3.71020156220621     -0.03121743333664
  C   -2.80087059672975      3.69399834828522     -0.02019463674439
  C   -3.55334319381139      2.46223584387866     -0.01830125475130
  C   -4.92186792005031      2.44017333361934     -0.00358264694422
  C   -5.65448655412119      1.21546378950813      0.00285251401691
  C   -7.05467069546741      1.18532115846655      0.01778568890260
  C   -7.73633201695786     -0.02279072647388      0.02591285049739
  C   -7.04656998789233     -1.22670312709350      0.02018009044895
  H   7.60155764974064     -2.12159014351420      0.02869946038486
  H   8.82088910944471      0.02582110656788      0.03813681885053
  H   7.59036374368975      2.16662739809523      0.02330780391251
  H   5.47241905726579     -3.37382678596309      0.01099700198861
  H   3.35225075709884     -4.62843847934488     -0.00284225631160
  H   -1.20544059559588     -5.89342220359769     -0.01119048629311
  H   1.24026021307802     -5.88616183682012     -0.01069849106831
  H   5.45421474809100      3.40742404439584      0.00464870502297
  H   -3.32486782380709     -4.64823485677770     -0.00397633398432
  H   3.32438146471548      4.64963156095829     -0.01056509719000
  H   -5.45244883128797     -3.40618229432450      0.00971038629135
  H   1.20509540779467      5.89120019953647     -0.02181077593835
  H   -1.24001318141899      5.88393110668040     -0.02127877966942
  H   -3.35185301054776      4.62985303745475     -0.00983173915087
  H   -5.47435088620306      3.37506712371201      0.00518925860155
  H   -7.60312011022627      2.12165429079725      0.02341065864610
  H   -8.82096081626547     -0.02639364292701      0.03750444037581
  H   -7.58895859103127     -2.16655521251217      0.02749712998768
  C   0.00100985951562      1.23628795887504      3.20430014498446
  O   1.16020560057957      1.24596103594062      3.20360663041750
  O   -1.15811114772680      1.22648645341343      3.21794749404772
   -  -0.00091239234208      1.23710456367119     -0.04494216958939
