69
Coordinates from ORCA-job gbm_co2_top_orthogonal_wB97x_d3_TZVP
  C   3.90288339663552     -4.26775641739658      0.00721517421111
  C   2.48191012931711     -4.27303217972008      0.00053881068345
  C   1.77245459413876     -5.50421405848939      0.00906480329063
  C   2.49731533329937     -6.70232614251499      0.02248976812153
  C   3.88466402862314     -6.68991544335142      0.02785509340248
  C   4.58364479610365     -5.49146619615397      0.02067338094381
  C   1.76953856629317     -3.04562595699711     -0.01370245448284
  C   0.35332603004754     -3.04978798984151     -0.01871775516393
  C   -0.35726758546061     -4.30531426747764     -0.00712921246844
  C   0.34489289485318     -5.47998788267854      0.00520567942337
  C   -0.35166065455184     -1.83877232029805     -0.03058293195079
  C   -1.78529512267454     -1.83276603882931     -0.02224283670178
  C   -2.49243537612138     -3.10359426255641     -0.01276510246369
  C   -1.80084746183282     -4.26868255843244     -0.00700089663401
  C   -2.47796278394505     -0.63988629595142     -0.01904779474099
  C   -3.93217307631959     -0.62326725103025     -0.00945774347169
  C   -4.62094313338154     -1.90675467866044     -0.00619975400280
  C   -3.94855884151452     -3.06502454121112     -0.00765290222923
  C   4.59000680453966     -3.01621752566243      0.00145223412074
  C   3.91835589115299     -1.82383452694133     -0.01084481608755
  C   2.47567746056532     -1.81804203514606     -0.02038515298461
  C   1.77386526043950     -0.60515606239981     -0.03215055326233
  C   0.35589013363799     -0.60996302664391     -0.03972751128969
  C   -0.35359765158418      0.61252341654056     -0.03302779223008
  C   -1.77208616975158      0.60808557502949     -0.02297664595632
  C   -2.47386088835140      1.82126788419717     -0.01252854035256
  C   -3.91656499854311      1.82695270105216     -0.00321797636924
  C   -4.60070742547348      0.55521913285228     -0.00301475951594
  C   4.60265081239254     -0.55222244874930     -0.01284536375141
  C   3.93409704239759      0.62623258761861     -0.01877210495132
  C   2.47984200754405      0.64264020601152     -0.02610116146181
  C   1.78769681403589      1.83582379685767     -0.02326765949071
  C   0.35392009221907      1.84197275748368     -0.02512623113259
  C   -0.35132368557538      3.05314884306558     -0.01476227411144
  C   -1.76761330062323      3.04890792253167     -0.00950489834566
  C   -2.47996895738295      4.27632812953551      0.00135701487712
  C   -3.90091951579355      4.27096573817916      0.00827504126058
  C   -4.58807646549184      3.01941687862606      0.00598418474651
  C   4.62293303661563      1.90970297544316     -0.01605397133954
  C   3.95076271959661      3.06809677292183     -0.01490820563893
  C   2.49465054574700      3.10673636602128     -0.01607178259349
  C   1.80302587275137      4.27181967650214     -0.00979100827667
  C   0.35941647367238      4.30864419593697     -0.00777978093290
  C   -0.34285553031776      5.48325668442430      0.00139763523978
  C   -1.77042654622474      5.50745577938276      0.00596326105367
  C   -2.49529730248768      6.70559069604266      0.01596925255918
  C   -3.88263683327949      6.69314219420224      0.02173765114304
  C   -4.58166547615438      5.49470677930994      0.01824260810115
  H   1.95986425703787     -7.64503579134871      0.02877710379017
  H   4.42910617432565     -7.62803924313718      0.03810422461551
  H   5.66880276298567     -5.49241877842279      0.02554349764354
  H   -0.18953258754486     -6.42537835455780      0.01327981746027
  H   -2.33583185926284     -5.21387041016727      0.00008499399946
  H   -5.70625017179459     -1.89699435637222     -0.00176501637328
  H   -4.47836205048196     -4.01229278381701     -0.00424021937573
  H   5.67599500338622     -3.02116072011696      0.00797976536540
  H   -5.68677860269473      0.55954177653629      0.00366137619728
  H   5.68873918451892     -0.55657953390529     -0.00736852286933
  H   -5.67405595667749      3.02444383630153      0.01237335055940
  H   5.70825214604961      1.89980871373482     -0.01420741052569
  H   4.48068301637268      4.01529427148695     -0.01227604238239
  H   2.33803760842449      5.21699241967882     -0.00488758869245
  H   0.19150162872586      6.42869721143398      0.00602653014210
  H   -1.95787364998286      7.64832382732298      0.01930156117415
  H   -4.42707870302778      7.63129144459480      0.02937887680995
  H   -5.66681610918669      5.49570079112887      0.02334234256217
  C   0.33296635086139     -0.64677243821486      4.26318867828713
  O   0.33918051900523     -0.63689194516442      3.10451122311060
  O   0.32685908517780     -0.65674851962943      5.42278543970856
