75
Coordinates from ORCA-job gbm_co2_bridge_parallel_pbe_d3_TZVP
  C   0.70918631360906      1.23140210869650     -0.03155527437395
  C   -0.71199388600139      1.23182757609345     -0.03602443834716
  C   -1.42276814952509      0.00062679021454     -0.03602648746583
  C   -0.71171174522968     -1.22987714565160     -0.03153295091513
  C   0.70899779947008     -1.22943850014942     -0.02868473764924
  C   1.41925629535078      0.00086975407332     -0.02871066807024
  C   -1.42601207045889      2.46744134252764     -0.03074896756817
  C   -2.84734556968687      2.46546887029878     -0.02731765999817
  C   -3.55890781081531      1.23290278714101     -0.02733963529590
  C   -2.84985428579095      0.00106379360401     -0.03076531468484
  C   1.42219219588823      2.46720485309825     -0.02243378882367
  C   0.70980934425124      3.69751934820662     -0.01849290484150
  C   -0.71380074560095      3.69759670056449     -0.02191788678012
  C   2.84579194612091      0.00107857858753     -0.01874277936589
  C   3.55528044027921      1.23290951431499     -0.01324444207846
  C   2.84373978937749      2.46573395300164     -0.01441067621217
  C   1.42217655342795     -2.46490175127203     -0.01869406730524
  C   2.84366802848418     -2.46340218692772     -0.01213244091973
  C   3.55533131223393     -1.23066173194117     -0.01215753630106
  C   -1.42535915581578     -2.46531266094379     -0.02239320960746
  C   -0.71321824094310     -3.69561557397070     -0.01433632224340
  C   0.71021169835944     -3.69530488512357     -0.01316482984218
  C   -3.55900427182842     -1.23085372935555     -0.02190866743543
  C   -2.84703819896035     -2.46363903919863     -0.01845546259058
  C   -4.99073295234511      1.22749738787758     -0.01776510362166
  C   -5.67123891430972      0.00107751433015     -0.01247809027179
  C   -4.99106483637075     -1.22545857265454     -0.01367148617920
  C   -5.67496715372380     -2.48507494966791     -0.00517705660519
  C   -4.99131308943259     -3.66908765190005     -0.00299123553680
  C   -3.55843518010934     -3.70657019378543     -0.00844750376848
  C   -2.83634895457684     -4.90904418629811     -0.00337008915376
  C   -1.43392773632739     -4.93309250568013     -0.00566428625094
  C   -0.68507550327823     -6.15524808913365      0.00174201070993
  C   0.68212490550366     -6.15502950302319      0.00243764674658
  C   1.43087729606445     -4.93280320442932     -0.00389458815277
  C   2.83325399420137     -4.90878564364066     -0.00015926286589
  C   3.55511977252931     -3.70620906011037     -0.00328463522536
  C   4.98795902334142     -3.66884091476245      0.00340905884298
  C   5.67150883011438     -2.48479503089132      0.00338925469227
  C   4.98736273948053     -1.22528735315809     -0.00333249138667
  C   5.66780176025363      0.00120414345255     -0.00024321009854
  C   4.98732048102616      1.22765188656012     -0.00399395610228
  C   5.67132919269352      2.48725715039655      0.00231543129419
  C   4.98782887453875      3.67134374425682      0.00161403633268
  C   3.55497651398443      3.70867765301654     -0.00576910231320
  C   2.83284790839621      4.91112841185354     -0.00347583866362
  C   1.43042724946754      4.93512961259344     -0.00852388926946
  C   0.68143257693339      6.15723227511631     -0.00306997233770
  C   -0.68578082282276      6.15718402802618     -0.00522380350372
  C   -1.43459613768181      4.93504334471337     -0.01368132534523
  C   -2.83689612760214      4.91071268544503     -0.01246502407891
  C   -3.55866706989273      3.70811379630192     -0.01774164767004
  C   -4.99142204924221      3.67084695877922     -0.01151178774549
  C   -5.67492427926316      2.48688175709260     -0.01152216493831
  H   -6.76442261297473      0.00122770664792     -0.00497529733916
  H   -6.76716838684567     -2.48042145424273      0.00024001093184
  H   -5.53333390377421     -4.61731307302069      0.00398067831746
  H   -3.38297112587901     -5.85577098435358      0.00379071822407
  H   -1.23516064633828     -7.09882293434482      0.00753550355268
  H   1.23240018680816     -7.09849675521007      0.00880489403741
  H   3.37991027280813     -5.85549082338412      0.00689841277970
  H   5.52999170801705     -4.61706487829527      0.00950118631910
  H   6.76371165234006     -2.48001547887630      0.00945594339462
  H   6.76100098310158      0.00122970682981      0.00679882889920
  H   6.76353439870281      2.48252233451137      0.00866406707510
  H   5.52987475630375      4.61955952002224      0.00739005312262
  H   3.37936977303504      5.85791347186360      0.00365494645922
  H   1.23153853339010      7.10079067751995      0.00387297743901
  H   -1.23598402628087      7.10068842623070      0.00018656610710
  H   -3.38369738264881      5.85731656850376     -0.00496594086978
  H   -5.53338175114756      4.61908838180983     -0.00488421857972
  H   -6.76710572952413      2.48202950129194     -0.00490178374013
  C   -1.02355776620771      0.59020798346824      3.21292704011896
  O   -0.00886168535970      0.00514981726955      3.21106406033875
  O   -2.03815914527194      1.17520902919337      3.22870861459388
