30
Coordinates from ORCA-job gbm_co2_hollow_orthogonal_wB97x_d3_TZVP
  C   -1.42273393822436      1.23209116149755     -0.01683674149478
  C   -0.70811361675640     -0.00332440694115     -0.01494079709671
  C   -1.42025115849418     -1.22702756273645     -0.00678012567005
  C   -2.81564926504657     -1.20489822661322     -0.00156449401617
  C   -3.50499172998574     -0.00019142876540     -0.00392050187946
  C   -2.81807436709218      1.20575595713798     -0.01127744632124
  C   0.70824857883325     -0.00227472918120     -0.01632813054696
  C   1.42215994118345     -1.22495184715642     -0.00828671272032
  C   0.67600332974760     -2.45944289466024     -0.00299609839184
  C   -0.67229716989179     -2.46043032900057     -0.00215850140461
  C   -0.68018034683727      2.45344493417631     -0.01675089035869
  C   0.67683268392754      2.45445856519049     -0.01810196983536
  C   1.42111685482120      1.23417730105652     -0.01624993318492
  C   2.81649047046394      1.20983033214678     -0.01054653513050
  C   3.50513853328986      0.00486582596021     -0.00403504662473
  C   2.81752531765896     -1.20082728045625     -0.00296649324986
  H   -3.35970687382292     -2.14413597456220      0.00443880916399
  H   -4.58970053628676     -0.00129707694374      0.00001550348583
  H   -3.36425971148727      2.14386957891921     -0.01221466862397
  H   1.22898956269880     -3.39348015471712      0.00098587200293
  H   -1.22391311127981     -3.39527491442871      0.00237672889143
  H   -1.22802850669035      3.39054375062002     -0.01563010906019
  H   1.22330106798399      3.39236033699188     -0.01697305538173
  H   3.36132824849959      2.14872759573355     -0.01069162867253
  H   4.58984676790330      0.00531474819740      0.00019705952309
  H   3.36292500856294     -2.13928879417342      0.00262220538632
  C   -0.00072062561265      1.23323277913115      4.27103916414482
  O   -0.00048455866541      1.23473905748680      3.11281474574019
  O   -0.00095938130893      1.23487436582527      5.43130472013488
   -  0.00015846190817      1.23455938026499     -0.01654359880890
