30
Coordinates from ORCA-job gbm_co2_bridge_parallel_wB97x_d3_TZVP
  C   0.34970818077692      1.84610735124099     -0.02653845464566
  C   -0.35722902156408      0.61952288783867     -0.03184571100855
  C   -1.77296515295400      0.61847108816560     -0.02642976898165
  C   -2.45332349253425      1.83681222882245     -0.01158514066905
  C   -1.75495971099333      3.03628179356824     -0.00300817463206
  C   -0.36698128322565      3.04339101232308     -0.01150107530817
  C   0.35875968189885     -0.61850180116711     -0.03194204109595
  C   -0.34820208510739     -1.84507109086864     -0.02495504420409
  C   -1.79070736355690     -1.81368937541566     -0.02976553735991
  C   -2.46515312243288     -0.64749341707392     -0.03084013584788
  C   1.79219455969888      1.81469275678498     -0.03265481877599
  C   2.46664586776918      0.64849932992557     -0.03368223986935
  C   1.77449446443983     -0.61746586732313     -0.02795525847395
  C   2.45483856040565     -1.83577047016816     -0.01310330112742
  C   1.75647651819098     -3.03525934644836     -0.00292065196778
  C   0.36851597680666     -3.04238222880058     -0.00984047826497
  H   -3.53861111261794      1.83703673217494     -0.00530499946423
  H   -2.29793048974557      3.97515128130657      0.01006407552164
  H   0.17408211640036      3.98418894860622     -0.00527500532722
  H   -2.32342118438742     -2.75918468103445     -0.02585209609639
  H   -3.55035279349606     -0.63765192563125     -0.02783434898781
  H   2.32492103560603      2.76018868586703     -0.02976602988294
  H   3.55185062941059      0.63866943021929     -0.03168838111238
  H   3.54013239927185     -1.83601344590031     -0.00795947651933
  H   2.29947000146766     -3.97411526442973      0.01018326316857
  H   -0.17255395736170     -3.98316719129017     -0.00238008564501
  C   -0.00689561436853     -0.00451104392189      3.15936421686893
  O   0.99746650687990      0.57424415793025      3.16268577158326
  O   -1.01118233780585     -0.58323369134208      3.17422580624341
   -  0.00091322312823      0.00025315604156     -0.03189387811809
