29
Coordinates from ORCA-job gbm_co2_top_orthogonal_wB97x_d3_TZVP
  C   0.34896665049098      1.84729269000127     -0.01981834842370
  C   -0.35671716581938      0.62042068348455     -0.02454637249059
  C   -1.77204270585506      0.62026410756990     -0.01437499712899
  C   -2.45301861947459      1.83838416723779     -0.00578359335485
  C   -1.75543519397988      3.03828114991486     -0.00487910474448
  C   -0.36751916118721      3.04486927386950     -0.01115355471071
  C   0.35874737593094     -0.61635559820270     -0.02817667184745
  C   -0.34675465071203     -1.84263995738786     -0.01955198851557
  C   -1.78927994961490     -1.81216994500390     -0.01262665174909
  C   -2.46456905256004     -0.64578191987144     -0.01002301112409
  C   1.79172451794038      1.81653229957825     -0.02085447837720
  C   2.46621594245442      0.64968106327291     -0.02323072366605
  C   1.77351915259005     -0.61604154072519     -0.02467885401759
  C   2.45466856100149     -1.83379320290053     -0.01421938007671
  C   1.75726314046679     -3.03371402663348     -0.00615403542549
  C   0.36936849045885     -3.04013146533591     -0.00922244828280
  H   -3.53844880704233      1.83835402064318      0.00096625668493
  H   -2.29856498252192      3.97717142571146      0.00159165938978
  H   0.17359582434997      3.98582070811434     -0.00857685993810
  H   -2.32187992859019     -2.75801792098595     -0.00809220180613
  H   -3.54998977129157     -0.63624436887046     -0.00384587473132
  H   2.32455715237306      2.76223214003983     -0.01884164486771
  H   3.55167192248202      0.63988605811093     -0.02269387653487
  H   3.54013517646566     -1.83360464674265     -0.01089035874765
  H   2.30041892581234     -3.97259814495297      0.00238664317007
  H   -0.17187542238748     -3.98100979077842     -0.00196853089865
  C   0.34776045022372     -0.63478957233145      4.30576574830863
  O   0.35089904658625     -0.63021731386689      3.14751673952205
  O   0.34516908140969     -0.64033737295897      5.46597951438433
