30
Coordinates from ORCA-job gbm_co2_bridge_orthogonal_wB97x_d3_TZVP
  C   0.34801590020197      1.84485175991912     -0.01685807109789
  C   -0.35767414668845      0.61846185727440     -0.02324448069097
  C   -1.77261753939223      0.61843539263789     -0.01590516677912
  C   -2.45360719049515      1.83647649529002     -0.00746445123200
  C   -1.75599771092748      3.03635006333833     -0.00425744154255
  C   -0.36808374707290      3.04259118093406     -0.00853008068572
  C   0.35767267789157     -0.61846386581825     -0.02324634013741
  C   -0.34801737530435     -1.84485378033151     -0.01686171368682
  C   -1.79072868195033     -1.81405134733315     -0.01273985275001
  C   -2.46544441092792     -0.64739237572476     -0.01206351522962
  C   1.79072719384846      1.81404932747347     -0.01273328640236
  C   2.46544293333705      0.64739034085838     -0.01205673859984
  C   1.77261605063640     -0.61843742620227     -0.01590213950738
  C   2.45360566173894     -1.83647854046150     -0.00746134913501
  C   1.75599618341065     -3.03635212412866     -0.00425765976491
  C   0.36808223049403     -3.04259323386270     -0.00853345034906
  H   -3.53905958857282      1.83647536664819     -0.00238411263845
  H   -2.29903694580729      3.97530211196853      0.00219316029612
  H   0.17329426342750      3.98340091326083     -0.00415734314655
  H   -2.32357415774545     -2.75975596089717     -0.00917172751791
  H   -3.55088470868051     -0.63759959467352     -0.00795432748312
  H   2.32357271008677      2.75975391392535     -0.00916309238928
  H   3.55088321302690      0.63759760024228     -0.00794507148869
  H   3.53905804417428     -1.83647739895055     -0.00237795750429
  H   2.29903540798643     -3.97530418063593      0.00219315040155
  H   -0.17329581366073     -3.98340295409639     -0.00416266462119
  C   0.00000726938474      0.00000612447957      4.28876729232765
  O   0.00000414285048      0.00000592531522      3.13053135232652
  O   0.00001037036942      0.00000641484395      5.44899249743922
   -  -0.00000423563998      0.00000599470676     -0.02324541841093
