36
Coordinates from ORCA-job gbm_co2_hollow_parallel_b3lyp_d3_TZVP
  C   3.55347386892892     -1.24750213013263     -0.01827352476754
  C   2.85940596215033     -2.42853056774608     -0.01942726343463
  C   1.45849973519439     -2.42559960917892     -0.02793855279032
  C   0.72849525014597     -1.24853991052544     -0.03833015812791
  C   -0.74209199785491     -1.24086564216431     -0.03831000811510
  C   -1.48431956776459     -2.40965746128036     -0.03045374342919
  C   -2.88512259113501     -2.39771340950690     -0.02136057692170
  C   -3.56661267244964     -1.20959961606324     -0.01919743583613
  C   2.86300219432899     -0.01525127927435     -0.02569596561522
  C   1.43318325993733     -0.00754279235151     -0.03819967650952
  C   0.74210019007952      1.24086740210374     -0.03823914005356
  C   -0.72839119516343      1.24855194777280     -0.03830015339810
  C   -1.43314411396618      0.00750144412244     -0.03854927928041
  C   -2.86296505208414      0.01523030486821     -0.02635826147304
  C   1.48434123919096      2.40962887318457     -0.03052534799864
  C   -1.45842425488610      2.42557272284695     -0.02778431130817
  H   3.38783090838117     -3.37340071092318     -0.01175384594744
  H   0.95044014149063     -3.37832946182278     -0.02343748632179
  H   -0.98667556898925     -3.36784833821847     -0.02590065077917
  H   -3.42351737531005     -3.33691606343258     -0.01385360625319
  H   4.63646168210502     -1.23943497423281     -0.01001470929520
  H   -4.64943858480787     -1.18998542453980     -0.01026560661471
  C   3.56664544216080      1.20958801299123     -0.01840934750291
  C   -3.55343015819097      1.24749462813927     -0.01896971697054
  C   2.88514510326031      2.39768779032407     -0.02101028482519
  C   -2.85934147018723      2.42850151251364     -0.01966204396824
  H   4.64946890919257      1.18998009333968     -0.00918052227457
  H   3.42353888614640      3.33689225247771     -0.01354875024538
  H   0.98670795136094      3.36782693202664     -0.02637142490259
  H   -0.95038811886746      3.37831238755953     -0.02281476546069
  H   -3.38775825084922      3.37337629664988     -0.01190539495313
  H   -4.63641984378525      1.23943960842172     -0.01100114992752
  C   -0.00021703086499     -0.00000685550890      3.25737561986896
  O   0.27986849945475      1.12527505892739      3.25744094690714
  O   -0.28028103823465     -1.12524918615201      3.26854268965745
   X  0.00001466188195      0.00009716478481     -0.03832055113211
