35
Coordinates from ORCA-job gbm_co2_bridge_parallel_wB97x_d3_TZVP
  C   3.61352935933863     -1.16700326308592     -0.00113250740376
  C   2.91464446141515     -2.33849363807045     -0.01259843067471
  C   1.50747953153492     -2.32292441610254     -0.01219712886152
  C   0.79449735168036     -1.14560709887959     -0.00026024259581
  C   -0.68647269426800     -1.12648744683714      0.00988248329432
  C   -1.43160583512070     -2.28393369183832      0.03361922886356
  C   -2.83887446441994     -2.26132143080870      0.04079797792497
  C   -3.50690410577930     -1.07188468802529      0.02418247835890
  C   2.92760202614233      0.07209200147592      0.00720450118559
  C   1.50893952246491      0.09087582557464      0.00461248599070
  C   0.82801299715802      1.34618073850876      0.00880045687860
  C   -0.65338523630273      1.36613751015662      0.00264301182691
  C   -1.36898518544071      0.12881824375537      0.00114260707413
  C   -2.78824663573518      0.14834216539968      0.00565715374197
  C   1.57194117642187      2.50440433880275      0.02005924345776
  C   -1.36805781261003      2.54328802189637      0.00570854009941
  H   3.43556066686319     -3.28969053795261     -0.02083522383030
  H   0.99241734874424     -3.27420664162655     -0.02153582993438
  H   -0.94207096675036     -3.24843756626835      0.04950586207000
  H   -3.38491477574635     -3.19818919586281      0.05978750518596
  H   4.69859309550480     -1.16410762978013      0.00098928355972
  H   -4.59136679165087     -1.03986448492900      0.02994785573361
  C   3.64619795884275      1.29255197169482      0.01858361584009
  C   -3.47381575940279      1.38731963581310      0.00276675621287
  C   2.97905557717654      2.48246009968306      0.02578315119022
  C   -2.77513970890703      2.55846426956297      0.00328194199483
  H   4.73079925181652      1.26064612627914      0.02186169000411
  H   3.52520762413931      3.41938566169616      0.03505239814311
  H   1.08231973019307      3.46913810493391      0.02423535726442
  H   -0.85306599146999      3.49465699228709      0.00864914791665
  H   -3.29598458159364      3.50957824063489      0.00704295451847
  H   -4.55867908504901      1.38433908968054      0.00849857891269
  C   -1.09937225646287      0.60305264326817      3.17945531481789
  O   -0.04104129789522      0.13250272424835      3.12894426816624
  O   -2.15646949483188      1.07352632471508      3.24921551307278
