69
Coordinates from ORCA-job gbm_co2_top_orthogonal_dsd_d3_TZVP
  C   3.91392524166412     -4.26875917364022      0.01187105940239
  C   2.48450880251925     -4.27333763253670      0.00413685484911
  C   1.77159867495594     -5.51226186290038      0.01578992439233
  C   2.50478107538858     -6.71454306429861      0.02905580584941
  C   3.89307348157663     -6.69994847235734      0.03356818554239
  C   4.59429419924060     -5.50169840115814      0.02522516187121
  C   1.77660881829922     -3.05380235402058     -0.00742789079074
  C   0.35505761509238     -3.05612554361539     -0.01639520962941
  C   -0.35552336561785     -4.30100628636725      0.00143336317497
  C   0.36275122508973     -5.49313147742987      0.01314683134455
  C   -0.35260762118211     -1.83963170496548     -0.02318701938771
  C   -1.77461785082671     -1.83917905618212     -0.01845829333576
  C   -2.48096714388865     -3.08926616801866     -0.00201931643865
  C   -1.77523741127053     -4.27319504772022      0.00300964456739
  C   -2.47914248289516     -0.62601983593752     -0.01024532977820
  C   -3.91499526944991     -0.61910482378930     -0.00256407832753
  C   -4.59891882246520     -1.88441303643782      0.00543561518865
  C   -3.91891508602725     -3.05564225261974      0.00471153223717
  C   4.59607150784991     -3.03593519371777      0.00525933832587
  C   3.91713155323577     -1.82098015678135     -0.00643923992865
  C   2.48368681487841     -1.82061694636345     -0.01992604618653
  C   1.77829205270273     -0.60274148500138     -0.02655118948862
  C   0.35537463362132     -0.60540548552828     -0.04248718359548
  C   -0.35080603285073      0.61132520687298     -0.02694170055164
  C   -1.77442084538217      0.60922609986051     -0.02198645239342
  C   -2.47962141836450      1.82739441987113     -0.00541486113501
  C   -3.91313850457659      1.82770374066134      0.00107760611042
  C   -4.59293976107482      0.58099375056304      0.00425607220459
  C   4.59712800492582     -0.57439057427553     -0.00928864864126
  C   3.91912898835103      0.62562656083067     -0.01469125515425
  C   2.48325569771691      0.63230777151342     -0.02659172455554
  C   1.77928546444895      1.84578878431258     -0.01917847998122
  C   0.35711393395732      1.84647214913498     -0.02652455409513
  C   -0.35084222861710      3.06304936593264     -0.01017980644942
  C   -1.77249990246821      3.06072458719777     -0.00911456784107
  C   -2.48033441250267      4.28023840256190      0.00463959408138
  C   -3.90971335246659      4.27559186496214      0.01104519696716
  C   -4.59190557318357      3.04275179828489      0.01083432098398
  C   4.60314116812404      1.89092997516210     -0.01292422408337
  C   3.92340057318080      3.06231062938954     -0.01280867200736
  C   2.48546284676189      3.09602205768973     -0.01643914656241
  C   1.77964064311639      4.27993352706701     -0.00998533912795
  C   0.35990535329653      4.30797601752136     -0.00856787105603
  C   -0.35848202110527      5.50002658342821      0.00115353420754
  C   -1.76734265362013      5.51911939179095      0.00612715884645
  C   -2.50052464465456      6.72142840860993      0.01604928081515
  C   -3.88880377651860      6.70683719538731      0.02267698996831
  C   -4.59004703017281      5.50857316170831      0.02086256878281
  H   1.96912070661256     -7.65584419350084      0.03675831328608
  H   4.43638571440142     -7.63594671731491      0.04381065605474
  H   5.67735145743460     -5.50342164673756      0.02994832647365
  H   -0.17477911713099     -6.43511599561261      0.02378836283903
  H   -2.31415738545481     -5.21447326232885      0.01372436948363
  H   -5.68222542967899     -1.88050551536347      0.01104433694716
  H   -4.45268121376579     -3.99832737526655      0.01218483274561
  H   5.68065802972895     -3.03637501368139      0.01267391587589
  H   -5.67759618074741      0.57984919525127      0.01076988725773
  H   5.68179107866509     -0.57327693765148     -0.00194303873897
  H   -5.67649068884903      3.04331009944277      0.01668697081710
  H   5.68645988965897      1.88687065013566     -0.00877368522654
  H   4.45733037702722      4.00492073119251     -0.01095719176409
  H   2.31860687462528      5.22122469077542     -0.00719856923047
  H   0.17897101513048      6.44209815744269      0.00328719452466
  H   -1.96488677395579      7.66276626430003      0.01767283383150
  H   -4.43209991779070      7.64286799750961      0.02995895042097
  H   -5.67309619167932      5.51034530721580      0.02621277190338
  C   0.30834629918714     -0.68640574063445      4.16492524141443
  O   0.32138982562429     -0.66402477546492      3.00179279878655
  O   0.29541847214426     -0.70882433436004      5.32826618310709
