70
Coordinates from ORCA-job gbm_co2_hollow_parallel_dsd_d3_TZVP
  C   5.65429895424333      1.25485746346475      0.00854097303483
  C   4.94469899635865      0.01418808221010      0.00106673365305
  C   5.66192494948128     -1.22214355223922      0.00844273475193
  C   7.06966264585383     -1.18724951814150      0.02495565996643
  C   7.75012849651049      0.02282269498819      0.03276950603739
  C   7.06205177986033      1.22875864463313      0.02548562819380
  C   3.53485849162084      0.01001804871702     -0.01919215556446
  C   2.82732384837885     -1.22285626130091     -0.01825261689758
  C   3.55060243162922     -2.46041100682738     -0.01172410503790
  C   4.94202424495474     -2.43332713941664      0.00268618904029
  C   1.41998271540645     -1.22877141579459     -0.03643703838499
  C   0.70835455589285     -2.46009500750886     -0.02548120997498
  C   1.43871067618908     -3.69642132904813     -0.02025395084133
  C   2.81688573281059     -3.67615639907558     -0.01240181880424
  C   -0.69476378774431     -2.46421630357827     -0.03037452159214
  C   -1.41784645661532     -3.70473721705596     -0.01654202729938
  C   -0.66314555315065     -4.92915304456723     -0.01423907991244
  C   0.69115720325899     -4.92519893315332     -0.01472871701268
  C   4.92666153731038      2.46150332936122      0.00290784853873
  C   3.53533887782688      2.47989197886499     -0.01460199167613
  C   2.81955719308822      1.23826633664528     -0.02320500914073
  C   1.41297815456729      1.23506847988309     -0.04725641923979
  C   0.70478936990251      0.00267336352708     -0.04135792460012
  C   -0.70559086657130     -0.00160341923253     -0.04915725014529
  C   -1.41347839540335     -1.23695615170679     -0.02908600423128
  C   -2.82091349898236     -1.23932568160295     -0.02373741784884
  C   -3.53686176015552     -2.48103137368234     -0.00815585440597
  C   -2.79611152247350     -3.69249896672115     -0.00975919508661
  C   2.79500171866472      3.69151350403477     -0.01525559260711
  C   1.41699035008671      3.70438951151544     -0.02907117243262
  C   0.69316027416473      2.46420932654075     -0.03941292468360
  C   -0.70813123760569      2.46017280068964     -0.04624353544904
  C   -1.42080554945226      1.22674598571902     -0.03972158758367
  C   -2.82758719918818      1.22179976835620     -0.03144026668593
  C   -3.53551934957411     -0.01060034922890     -0.01548054208893
  C   -4.94544557926238     -0.01466151400613     -0.00299339899777
  C   -5.65540889399817     -1.25514492664110      0.00876509121294
  C   -4.92843765592352     -2.46209567490597      0.00384584093149
  C   0.66254940931135      4.92877025975799     -0.02188784650503
  C   -0.69192641094694      4.92488945213430     -0.02284826929250
  C   -1.43924878809070      3.69612377666030     -0.02782161674248
  C   -2.81723930715052      3.67518662017905     -0.01769678022357
  C   -3.55050617203867      2.45923965835296     -0.01532651908744
  C   -4.94174913435384      2.43272644509769     -0.00080680006533
  C   -5.66227059914057      1.22183322107095      0.00618816379937
  C   -7.06987089107321      1.18751673258408      0.02146038694700
  C   -7.75088678983759     -0.02240658379676      0.02998067123025
  C   -7.06333783898579     -1.22848069006432      0.02364552182342
  H   7.61776842767354     -2.12135659925087      0.03115112302122
  H   8.83234007848867      0.02620604208475      0.04559179652878
  H   7.60434189044566      2.16624356067243      0.03227273951191
  H   5.48984329305183     -3.36937270092088      0.00898557535182
  H   3.36298099489047     -4.61330238520088     -0.00667413959116
  H   -1.20762383862687     -5.86566658235300     -0.00845376271635
  H   1.24109956278302     -5.85852751144242     -0.01158154632772
  H   5.46856834101662      3.40095733842000      0.01150665213796
  H   -3.33672572214012     -4.63278626943176     -0.00025329993597
  H   3.33591676224842      4.63162063014661     -0.00519294775697
  H   -5.47074155159500     -3.40131837434070      0.01349588901228
  H   1.20712914661232      5.86523022984176     -0.01563609198395
  H   -1.24190996593706      5.85817650696495     -0.01503789270309
  H   -3.36360521920423      4.61210873134546     -0.00501988262077
  H   -5.48913170350997      3.36898627946465      0.00947401673873
  H   -7.61762990344860      2.12182038315408      0.02792055141449
  H   -8.83310834311990     -0.02534347723018      0.04197260239458
  H   -7.60595678534724     -2.16577145413069      0.03158062761355
  C   0.00828694209758      1.24575158193468      3.14639755900867
  O   1.17034607500520      1.30926149275191      3.14274378450200
  O   -1.15367215819725      1.18189464381162      3.15952924176519
   -  -0.00113569284094      1.23356790801701     -0.04395438438420
