70
Coordinates from ORCA-job gbm_co2_bridge_parallel_dsd_d3_TZVP
  C   3.91141708596541     -4.27336670621158      0.00663689804176
  C   2.48202036770146     -4.27800222516717      0.00212113179650
  C   1.76880189002082     -5.51675597463107      0.00726655553977
  C   2.50189075751750     -6.71907604831407      0.01943387423917
  C   3.89017462517739     -6.70453138256770      0.02451082237016
  C   4.59159697646029     -5.50639057482852      0.01880839139900
  C   1.77430359232136     -3.05846892440404     -0.01381171027982
  C   0.35255911601276     -3.06098576747075     -0.01302433875751
  C   -0.35845408674019     -4.30565300652170     -0.00847512469432
  C   0.35992823593542     -5.49761992893098      0.00340487903310
  C   -0.35576321768348     -1.84485842621686     -0.03130983093067
  C   -1.77766508372259     -1.84329031844674     -0.02277671391817
  C   -2.48384012679597     -3.09317818052860     -0.01717491318783
  C   -1.77806594658225     -4.27705973561009     -0.00868371669919
  C   -2.48164746014414     -0.63021658902522     -0.02862344214071
  C   -3.91715622701550     -0.62322305313941     -0.01534056560767
  C   -4.60133612022840     -1.88826784044605     -0.01219214749444
  C   -3.92164400777577     -3.05953758733936     -0.01165726682012
  C   4.59380401730628     -3.04063245455325      0.00230080032727
  C   3.91531611899330     -1.82551041516059     -0.00951933060488
  C   2.48187420131181     -1.82528765895899     -0.01375590564695
  C   1.77741925007238     -0.60691008008922     -0.03210466468705
  C   0.35337529980164     -0.60995874287206     -0.02868422524959
  C   -0.35348468360947      0.60820060293346     -0.03770075359989
  C   -1.77741742021213      0.60508027449547     -0.02385595891068
  C   -2.48201040435808      1.82353702296436     -0.02034225964728
  C   -3.91539802179780      1.82367969773480     -0.00768892806783
  C   -4.59490418718316      0.57693485973094     -0.00949314815031
  C   4.59481937364329     -0.57876420843311     -0.00947351214850
  C   3.91708282026030      0.62139980365993     -0.01720756642867
  C   2.48153063748422      0.62841184127927     -0.02289839689571
  C   1.77760114302969      1.84150590169720     -0.02727395970478
  C   0.35569477699224      1.84295539083939     -0.02288500879665
  C   -0.35264864734446      3.05921565394351     -0.01910391288589
  C   -1.77435373880071      3.05659536851495     -0.00879414123882
  C   -2.48210701153364      4.27618787471866     -0.00008073147540
  C   -3.91149428323523      4.27153494606719      0.00734785761908
  C   -4.59390397929478      3.03881509020979      0.00212572722181
  C   4.60125897211760      1.88642849217448     -0.01041058828426
  C   3.92155867299126      3.05768982048095     -0.00956201335858
  C   2.48374496244076      3.09129968581733     -0.01274514187448
  C   1.77799113404523      4.27520631041567     -0.00605471466490
  C   0.35839047300917      4.30380481109726     -0.00508685494330
  C   -0.36000384579486      5.49579255012629      0.00492657209996
  C   -1.76887829043969      5.51491775711435      0.00881716231505
  C   -2.50197206988407      6.71724048249251      0.01998352738963
  C   -3.89025403927146      6.70269257962004      0.02480543565057
  C   -4.59168026093974      5.50456104776615      0.01851949788783
  H   1.96619577888991     -7.66035418663983      0.02400598514381
  H   4.43338309562171     -7.64058927533661      0.03363531391346
  H   5.67463627889004     -5.50830101618645      0.02292523894169
  H   -0.17754347740403     -6.43964479873272      0.00843286775734
  H   -2.31721949122568     -5.21819988747408     -0.00253029941226
  H   -5.68459976526149     -1.88405206636085     -0.00598293316127
  H   -4.45547253364028     -4.00215345447872     -0.00726491784181
  H   5.67837284300429     -3.04135749971139      0.00708608165795
  H   -5.67951617411724      0.57574732505410     -0.00039172143804
  H   5.67945367183474     -0.57759192076534     -0.00330614948241
  H   -5.67845824232473      3.03952895654631      0.00943591743297
  H   5.68453279632707      1.88221659937850     -0.00606127603307
  H   4.45535948498082      4.00030342683215     -0.00227347552556
  H   2.31714955381770      5.21630887530466      0.00405309312047
  H   0.17747217981748      6.43779127220449      0.01330936531856
  H   -1.96627585699403      7.65851052236572      0.02583899169215
  H   -4.43346410052931      7.63875325554269      0.03356703309004
  H   -5.67471668691986      5.50646630004132      0.02324335831940
  C   0.00060832912471      0.02088405931203      3.06977979061924
  O   1.00468813930806      0.60935468776766      3.06543577348370
  O   -1.00336799983987     -0.56755822769951      3.08667325019546
   -  0.00070683641598     -0.00218998299097     -0.03321493292760
