70
Coordinates from ORCA-job gbm_co2_hollow_orthogonal_dsd_d3_TZVP
  C   5.65552291950995      1.25277735932373      0.01437474141049
  C   4.94475733955607      0.01258659881160      0.01001023866606
  C   5.66116182661974     -1.22435159533675      0.01237675531075
  C   7.06901319795154     -1.19060199805075      0.02154097975814
  C   7.75054712586859      0.01895173030864      0.02657158488940
  C   7.06347296704672      1.22541457215471      0.02368687062686
  C   3.53467661674514      0.00941115574367     -0.00294843497912
  C   2.82605776296229     -1.22297555076189     -0.00140658025986
  C   3.54868988695983     -2.46098143693509      0.00006220586845
  C   4.94022332461257     -2.43493610581496      0.00860132062023
  C   1.41842477258623     -1.22760648396503     -0.01483348574656
  C   0.70666782847637     -2.45903979027918     -0.00531228578614
  C   1.43625074390953     -3.69580998473968     -0.00450981498623
  C   2.81443997565779     -3.67649673188375     -0.00018616093383
  C   -0.69622832429171     -2.46223835738887     -0.01016960070277
  C   -1.42025031212395     -3.70222324665515     -0.00028415903585
  C   -0.66641003571419     -4.92720623369480      0.00021725012852
  C   0.68791475837778     -4.92415544059877     -0.00046926782081
  C   4.92894620312356      2.45999409440855      0.01262630114983
  C   3.53728308403908      2.47973681001956      0.00250680387305
  C   2.81999442466061      1.23851011708267     -0.00165117129172
  C   1.41271792223949      1.23716623120953     -0.01861076680665
  C   0.70322321445737      0.00324694697698     -0.01420647547354
  C   -0.70394519875863      0.00000477010075     -0.02160874692781
  C   -1.41352183092366     -1.23397901681770     -0.00693877516625
  C   -2.82122890259835     -1.23563183311533     -0.00652985910900
  C   -3.53820424152762     -2.47685691300047      0.00427382599942
  C   -2.79851495532655     -3.68907185902366      0.00310997384747
  C   2.79754811908352      3.69173279091815      0.00392581623845
  C   1.41916600873513      3.70442889818803     -0.00459747138452
  C   0.69540345153519      2.46465885224321     -0.01040118958638
  C   -0.70709213435952      2.46154027073276     -0.01781533280347
  C   -1.41883276757283      1.23078696394112     -0.01221717200535
  C   -2.82621796071724      1.22589489840970     -0.00997591984772
  C   -3.53528622614786     -0.00639697261832      0.00067536346795
  C   -4.94541515130582     -0.00958008233065      0.00606600470217
  C   -5.65622429114275     -1.24972106610980      0.01315384162224
  C   -4.92986009076282     -2.45706438448171      0.01045593090913
  C   0.66576782438932      4.92966255549935      0.00126665811828
  C   -0.68853814634378      4.92662445503061     -0.00032260556092
  C   -1.43641534274707      3.69800510670962     -0.00442772404324
  C   -2.81474504829287      3.67916402352440      0.00036210615119
  C   -3.54904245070121      2.46386967477018      0.00103986125762
  C   -4.94062646029878      2.43788453826612      0.00822114073302
  C   -5.66174212217357      1.22740338775820      0.01177000701511
  C   -7.06956656634282      1.19371824294735      0.01951638485229
  C   -7.75120306689136     -0.01581684938035      0.02401653289970
  C   -7.06422234390548     -1.22229198059041      0.02073999864793
  H   7.61636668313123     -2.12517337062725      0.02376638792190
  H   8.83282640769791      0.02142352976246      0.03333741067617
  H   7.60658299988193      2.16245765710592      0.02757835870027
  H   5.48734481582927     -3.37142148951618      0.01087515054696
  H   3.36010887159843     -4.61391597977227      0.00176177228280
  H   -1.21150643512878     -5.86338896207611      0.00401507161374
  H   1.23722207091655     -5.85788098591867      0.00044729510684
  H   5.47176402555728      3.39899224175903      0.01705792841369
  H   -3.33997164404861     -4.62891365615441      0.00907785430854
  H   3.33883482329544      4.63171415502311      0.00938780857428
  H   -5.47275881139672     -3.39598895442218      0.01627990609003
  H   1.21105887423700      5.86577264341831      0.00515867955247
  H   -1.23803368014288      5.86026472249747      0.00486844671181
  H   -3.36020715209113      4.61670914718021      0.00832370596094
  H   -5.48764951613799      3.37443125388794      0.01407561239177
  H   -7.61688001380098      2.12831473868920      0.02287163102325
  H   -8.83348688052387     -0.01821234179878      0.02997154396201
  H   -7.60735697472738     -2.15931412393951      0.02500895464558
  C   0.00718243206000      1.20948936941487      4.08653682588644
  O   0.00504272582735      1.21635301438059      2.92325385710606
  O   0.00932150599796      1.20342832372632      5.25025953548206
   -  -0.00035145616497      1.23272993587382     -0.01604223546364
