40
Coordinates from ORCA-job gbm_co2_bridge_parallel_pbe_d3_TZVP
  C   0.71402441836383      1.23452178514853     -0.02660904670149
  C   -0.71197157069676      1.23493182003042     -0.03182253081184
  C   -1.42524536151563     -0.00046863382774     -0.03306205017342
  C   -0.71189997344507     -1.23520945828680     -0.02604837759196
  C   0.71364307232375     -1.23473582339885     -0.02455811682170
  C   1.42636459106444     -0.00028124252883     -0.02667308211751
  C   -1.42494082106539      2.46834309687775     -0.03263979632854
  C   -2.84662491980332      2.43740940731457     -0.03957693669701
  C   -3.53393844644283      1.24694428270947     -0.04121930681642
  C   -2.84989404039927      0.00025879759162     -0.03543823503586
  C   1.42584167842547      2.46812447777043     -0.01799712613755
  C   0.68782231128418      3.68411856419568     -0.01500857016980
  C   -0.68732501499078      3.68439813079274     -0.02272190586801
  C   2.85042568274163     -0.00016025963685     -0.01903794165283
  C   3.53497035311355      1.24657794499829     -0.01304019088397
  C   2.84783676124291      2.43757959756795     -0.01180399481861
  C   1.42555156577272     -2.46806291367259     -0.01548488646364
  C   2.84747911349692     -2.43759111042649     -0.01182712775659
  C   3.53498198571435     -1.24682213880378     -0.01371139073816
  C   -1.42434569845653     -2.46845519008478     -0.01723737389151
  C   -0.68690978492904     -3.68465518537251     -0.00826600422700
  C   0.68809455780153     -3.68424421246280     -0.00793072832953
  C   -3.53424064221647     -1.24655011047977     -0.02652797762746
  C   -2.84644347736601     -2.43731851810686     -0.01686891212201
  H   -3.38915936525452      3.38522754006617     -0.03807586812830
  H   -4.62604127949469      1.24288129566014     -0.04090083581807
  H   1.23737079132685      4.62803309262020     -0.00688542789270
  H   -1.23705521333222      4.62815048558529     -0.02068216049429
  H   4.62719214204000      1.24225381290495     -0.00725300644832
  H   3.39044405089735      3.38548597359873     -0.00553636793081
  H   3.38996302767164     -3.38556469350232     -0.00545131536731
  H   4.62720072983006     -1.24264338446888     -0.00864911137123
  H   -1.23654075663804     -4.62850298707008     -0.00144110810461
  H   1.23793467395545     -4.62797061757809     -0.00047237052978
  H   -4.62642064485656     -1.24233715576439     -0.02611071608326
  H   -3.38914106106887     -3.38518982839030     -0.00897045246380
  C   -1.07601081484293      0.61803812647662      3.23998637596295
  O   -0.06022528709326      0.03490754820487      3.24244631394806
  O   -2.09166144619034      1.20109383172292      3.25554289282900
   X  -1.06864688696807      0.61712325202535     -0.03244127232514
