40
Coordinates from ORCA-job gbm_co2_hollow_parallel_pbe_d3_TZVP
  C   0.71318693522681      1.23532398253590     -0.04399461825559
  C   -0.71285254768611      1.23505054069885     -0.04403077245082
  C   -1.42604045094715      0.00016379678754     -0.04387497273431
  C   -0.71316297365161     -1.23449372409166     -0.04364337561679
  C   0.71288096803903     -1.23421812992477     -0.04360643653725
  C   1.42606469687007      0.00067337130352     -0.04376303672487
  C   -1.42521298172261      2.46880432441745     -0.03265472255482
  C   -2.84717503123625      2.43778955799231     -0.02538402774358
  C   -3.53443983529822      1.24674648968834     -0.02544464578097
  C   -2.85006962175114      0.00007532947278     -0.03264749600432
  C   1.42519338025837      2.46855811801139     -0.03291309369601
  C   0.68765722914602      3.68453448394391     -0.02572629324892
  C   -0.68744751743406      3.68479446087409     -0.02553089362505
  C   2.85007842486592      0.00075941270453     -0.03245899134475
  C   3.53441675710815      1.24734828457592     -0.02434431791119
  C   2.84694556736673      2.43800480471672     -0.02456688076235
  C   1.42523693141869     -2.46797105400079     -0.03178502459228
  C   2.84719953084363     -2.43695431746081     -0.02440968060865
  C   3.53445245073442     -1.24590677705595     -0.02480744312086
  C   -1.42517847811334     -2.46773134010893     -0.03222416002710
  C   -0.68764135576227     -3.68370156016797     -0.02460735704160
  C   0.68746577738972     -3.68395596237273     -0.02432038308104
  C   -3.53440244424875     -1.24651498439326     -0.02418889287452
  C   -2.84692923158045     -2.43717117256878     -0.02399066936219
  H   -3.38988661870848      3.38563997847028     -0.01774928013827
  H   -4.62662713933171      1.24247735260069     -0.01720098543951
  H   1.23739600118135      4.62829360938337     -0.01760110755756
  H   -1.23701727971494      4.62868501440556     -0.01790684043581
  H   4.62657237988933      1.24319034782159     -0.01481781237215
  H   3.38936716447412      3.38595177931186     -0.01521947566429
  H   3.38991085202509     -3.38480185869491     -0.01643151732549
  H   4.62663945136234     -1.24163247598207     -0.01648412909943
  H   -1.23737948498441     -4.62745787482941     -0.01621246630082
  H   1.23703134287675     -4.62784619485777     -0.01635658579088
  H   -4.62655824825190     -1.24235738254666     -0.01473052408122
  H   -3.38935166621482     -3.38511405886005     -0.01437455700651
  C   -0.00011914698080     -0.00516130576361      3.32760952906684
  O   1.01420927047927      0.58029389008431      3.32861584102347
  O   -1.01442614435353     -0.59058695912486      3.33759164496214
   X  0.00001311641676      0.00041814300409     -0.04381958814068
