36
Coordinates from ORCA-job gbm_co2_hollow_orthogonal_dsd_d3_TZVP
  C   3.56052768659117     -1.22702266574872      0.01139863277533
  C   2.87220830769562     -2.41310064870559      0.00985066694849
  C   1.47026818019519     -2.41749180133151      0.00430479922756
  C   0.73466292940506     -1.24280992203357      0.00055709175275
  C   -0.73469176941993     -1.24279019791089      0.00053628304293
  C   -1.47032867257805     -2.41745229215265      0.00429026917889
  C   -2.87226868520769     -2.41302303120631      0.00983387739397
  C   -3.56055594211544     -1.22692646249419      0.01140741177906
  C   2.86099751408804     -0.00005356211085      0.00728731775416
  C   1.43267659325193     -0.00003301725417      0.00054215299553
  C   0.73470007597252      1.24275727636695      0.00057522239263
  C   -0.73466145472459      1.24277709337182      0.00055451059349
  C   -1.43267161597799      0.00000564980676      0.00057052284337
  C   -2.86099261978336      0.00002375728377      0.00729240783692
  C   1.47033452045805      2.41742101797469      0.00433696051332
  C   -1.47026422085039      2.41746065580078      0.00432895598623
  H   3.40586303914657     -3.35431076496330      0.01241647847127
  H   0.96761339484465     -3.37307117761927      0.00384441218050
  H   -0.96769989632641     -3.37304532869606      0.00378491680330
  H   -3.40594892499439     -3.35421871094196      0.01239388185468
  H   4.64315528198266     -1.21250062826457      0.01579342572002
  H   -4.64318314982514     -1.21237509886189      0.01579940173677
  C   3.56056156590972      1.22689582488420      0.01141444934586
  C   -3.56052346182449      1.22699208255954      0.01142853851923
  C   2.87227426910462      2.41299278592012      0.00988221484348
  C   -2.87220404283734      2.41307038503240      0.00987427815742
  H   4.64318875937735      1.21234412337290      0.01580888799237
  H   3.40595435174028      3.35418850409139      0.01245934693415
  H   0.96770426362476      3.37301322780624      0.00388937661650
  H   -0.96760823357930      3.37303933897223      0.00383870891342
  H   -3.40585859502432      3.35428058237566      0.01245074769256
  H   -4.64315105209552      1.21246969533720      0.01582101481201
  C   0.00000826412289      0.00008815573687      4.11650933251462
  O   0.00000026104849      0.00008362619579      2.95374803129879
  O   0.00001649797527      0.00009323538684      5.28061923957807
   -  -0.00002241937050      0.00007429201935      0.00055423300034
