35
Coordinates from ORCA-job gbm_co2_top_parallel_dsd_d3_TZVP
  C   3.56035445580325     -1.21490415310305     -0.08948920929823
  C   2.87332110067251     -2.40144073320419     -0.11595358362254
  C   1.47156290745697     -2.40921748857442     -0.08524549951032
  C   0.73431810129014     -1.23614723364543     -0.03481972718077
  C   -0.73391422531846     -1.23712767797285      0.01974191627376
  C   -1.46676694997070     -2.41121500257563      0.09049960671857
  C   -2.86858237549293     -2.40739627895993      0.10690446083388
  C   -3.55838988656627     -1.22357794301804      0.04647221290985
  C   2.86025629788758      0.01003217528328     -0.04207196630629
  C   1.43169902426994      0.00762855717937     -0.02385176431011
  C   0.73147111796650      1.24944226175316      0.00662468886521
  C   -0.73665481270252      1.24752438760479     -0.04080922503190
  C   -1.43303195948289      0.00434642381909     -0.01598545653190
  C   -2.86108926348800      0.00307616853063     -0.01365303629976
  C   1.46547170582928      2.42323730018070      0.07914933087842
  C   -1.47150780133600      2.42045505440715     -0.11063726549386
  H   3.40802025962497     -3.34113662281253     -0.15558329733472
  H   0.96858493207109     -3.36430095735544     -0.11418595811535
  H   -0.96140441195267     -3.36408459707216      0.14245296110813
  H   -3.40120895265229     -3.34743738776721      0.16300333905150
  H   4.64270374898395     -1.19899095389718     -0.10136749545541
  H   -4.64099692207035     -1.21064272103311      0.05033359774007
  C   3.55757462402687      1.23656148844228      0.00933925826898
  C   -3.56074732995173      1.22854177439864     -0.07131457943955
  C   2.86774390808741      2.41966160155037      0.08082119229432
  C   -2.87332227586639      2.41400979088688     -0.12661605811313
  H   4.64001094411978      1.22375775101244      0.00329362102041
  H   3.40047378080568      3.35970551335425      0.13612759728020
  H   0.95971536733410      3.37553633291526      0.13764517043863
  H   -0.96749982041579      3.37417805409534     -0.16027182222431
  H   -3.40783965055271      3.35313013242308     -0.18009258067902
  H   -4.64333538349351      1.21357277482538     -0.07327548646897
  C   1.44051843854262     -0.06547047097004      3.15732977794849
  O   2.60121101018618     -0.14510878588859      3.15228181621084
  O   0.27957129635438      0.01326246518770      3.17320546357488
