35
Coordinates from ORCA-job gbm_co2_top_orthogonal_dsd_d3_TZVP
  C   3.55876923643649     -1.21616530337526     -0.05721606529864
  C   2.87121011498186     -2.40208799959569     -0.10311621954515
  C   1.46934272364777     -2.40800945730826     -0.08820316855445
  C   0.73449136325713     -1.23423531387838     -0.03351730834787
  C   -0.73348971292605     -1.23541569740938      0.02693277379266
  C   -1.46678731118856     -2.40889976820405      0.10817028318575
  C   -2.86864534782662     -2.40464995212470      0.13118958694470
  C   -3.55907874005088     -1.22121670550485      0.06802872360956
  C   2.85889378384519      0.00951791758645     -0.01296576473536
  C   1.43132128830819      0.00832004148436     -0.01826839117546
  C   0.73240706571119      1.24949367060779      0.00643552956930
  C   -0.73580163962818      1.24856424937386     -0.04547070429514
  C   -1.43353248042740      0.00602533100983     -0.00745667927056
  C   -2.86187374981754      0.00509399836955     -0.00198563708331
  C   1.46462641115006      2.42372167650234      0.08159379606752
  C   -1.47099955565631      2.42097605230187     -0.12444310526629
  H   3.40561760851734     -3.34189532777206     -0.14646994482072
  H   0.96533659777070     -3.36225950523660     -0.12745719560947
  H   -0.96112876326038     -3.36149158690795      0.16224012651225
  H   -3.40108505858479     -3.34441833249512      0.19432988321856
  H   4.64145346751492     -1.20131676895662     -0.05751499639501
  H   -4.64169171576164     -1.20841562020496      0.07495663096929
  C   3.55630916392737      1.23599733550405      0.04648094446089
  C   -3.56122374452159      1.23048070990635     -0.06721668107672
  C   2.86645720034250      2.42012914362222      0.10253144370313
  C   -2.87298568163892      2.41483751535799     -0.13674990450253
  H   4.63900150356459      1.22297813812222      0.05286469515504
  H   3.39899620564331      3.36025903796972      0.15981798559726
  H   0.95828539913732      3.37616978535235      0.13352919902459
  H   -0.96657738998638      3.37379212117856     -0.18621228849164
  H   -3.40720982295874      3.35368734754647     -0.19838691479930
  H   -4.64383979976481      1.21613746285079     -0.06652001209761
  C   1.44677818313075     -0.07537624981219      4.24291712743805
  O   1.44307164294556     -0.06276524358760      3.08018163535727
  O   1.45187255416653     -0.08808970227308      5.40696761675943
