36
Coordinates from ORCA-job gbm_co2_hollow_parallel_pbe_d3_TZVP
  C   3.56593790017560     -1.25173480659705     -0.02725848603028
  C   2.86776195858968     -2.44059833461697     -0.02825760874398
  C   1.46346987333309     -2.43717671307431     -0.03520633560289
  C   0.72823887265345     -1.25207217671774     -0.04371811325311
  C   -0.74184064654411     -1.24417286165139     -0.04369206545965
  C   -1.48974359119950     -2.42088639682780     -0.03698492842632
  C   -2.89391981941427     -2.40905455149924     -0.02933241066135
  C   -3.57913880053620     -1.21283059237278     -0.02757933941450
  C   2.87348178350108     -0.01561405378993     -0.03321028054618
  C   1.43611955397673     -0.00771199427186     -0.04331461014649
  C   0.74212565224101      1.24420055577049     -0.04369279560056
  C   -0.72794621998152      1.25210819970188     -0.04372724778108
  C   -1.43583829142098      0.00776060633864     -0.04348426702988
  C   -2.87320546860943      0.01565314324186     -0.03352470509983
  C   1.49001783990735      2.42090568821522     -0.03705965735858
  C   -1.46317553041236      2.43719759621086     -0.03515535376295
  H   3.40102225091783     -3.39252364174459     -0.02192220956455
  H   0.94865233955693     -3.39691236184470     -0.03141594763786
  H   -0.98558019716012     -3.38624192543692     -0.03310396191224
  H   -3.43746632150279     -3.35511979607001     -0.02289429334481
  H   4.65770122926580     -1.24243929436730     -0.02051090071250
  H   -4.67072333597708     -1.19164193107375     -0.02013405152974
  C   3.57942068656109      1.21286759222957     -0.02721351165381
  C   -3.56566316250711      1.25177465662570     -0.02758351445782
  C   2.89419434936180      2.40908529784750     -0.02919137134539
  C   -2.86746990515254      2.44062648235822     -0.02836842380215
  H   4.67100417531000      1.19167757371746     -0.01961700679907
  H   3.43773543931231      3.35515468289813     -0.02279552726482
  H   0.98584958775497      3.38625887916333     -0.03338903796768
  H   -0.94835266612585      3.39692795364560     -0.03110661661587
  H   -3.40072250422281      3.39255645466837     -0.02197552561139
  H   -4.65742676744868      1.24248335267005     -0.02096290445073
  C   -0.00151163470977     -0.00021492199387      3.34335285415968
  O   0.26893978714857      1.13924290088742      3.34352676264012
  O   -0.27194699015769     -1.13964622165575      3.35449780372889
   X  0.00008257351548     -0.00003504058436     -0.04399641094067
