35
Coordinates from ORCA-job gbm_co2_top_orthogonal_pbe_d3_TZVP
  C   3.57060570644747     -1.23036836160601     -0.02239022649243
  C   2.87956697471086     -2.42322930466018     -0.01604009097374
  C   1.47514160819452     -2.42723066693265     -0.01650027621245
  C   0.73359344431741     -1.24615694056156     -0.02411867657412
  C   -0.73645285692457     -1.24666991514616     -0.01821315459992
  C   -1.47823081002928     -2.42788024082905     -0.01405717730946
  C   -2.88271899362552     -2.42400736900189     -0.00650302498564
  C   -3.57454213260572     -1.23154509316048     -0.00360458749324
  C   2.87062937063122      0.00137251587305     -0.02791946532131
  C   1.43408145750182      0.00120910875067     -0.03076729977935
  C   0.73332904299651      1.24844477960512     -0.02581826417384
  C   -0.73673424386008      1.24866010720767     -0.02098343841223
  C   -1.43795292450985      0.00091946072865     -0.01616399470684
  C   -2.87511819981144      0.00077220598455     -0.00876222291104
  C   1.47462178339304      2.42971014406353     -0.01914790570160
  C   -1.47876920140101      2.42971659839343     -0.02033135696528
  H   3.41825551982626     -3.37218766045091     -0.01049493317297
  H   0.96580600135147     -3.39007265134801     -0.00882315405189
  H   -0.96875709904015     -3.39064223681363     -0.01767161279033
  H   -3.42108982094140     -3.37314346453920     -0.00356122248126
  H   4.66237932690225     -1.21460127682919     -0.02100274674790
  H   -4.66626710154780     -1.21636197428499      0.00191093380906
  C   3.57033493764875      1.23327393513683     -0.02367571817154
  C   -3.57481102216900      1.23294627568006     -0.00695350018707
  C   2.87905286178685      2.42600836247719     -0.01847386906079
  C   -2.88325895851635      2.42555232166959     -0.01312833114177
  H   4.66211248608840      1.21773506314090     -0.02222013810217
  H   3.41754478639586      3.37508221460851     -0.01375659883363
  H   0.96508278791674      3.39245131291815     -0.01234360398822
  H   -0.96950083273524      3.39257472314585     -0.02667571111619
  H   -3.42184108201941      3.37457261216446     -0.01298553534250
  H   -4.66653322492003      1.21753144430101     -0.00146666969835
  C   1.45582810732867     -0.01159361207342      4.36701996347746
  O   1.45049571216757     -0.01839733677483      3.19661732866955
  O   1.46240799905118     -0.00497165083706      5.53900666154302
