36
Coordinates from ORCA-job gbm_co2_hollow_orthogonal_pbe_d3_TZVP
  C   3.57261872615976     -1.23225234555713     -0.00377989339115
  C   2.88101288692476     -2.42481807025448     -0.00515717499557
  C   1.47647622616518     -2.42859066006327     -0.01045593216068
  C   0.73493550900234     -1.24746130063874     -0.01476085761219
  C   -0.73495972764435     -1.24744181284228     -0.01475987830141
  C   -1.47653224267723     -2.42855073214043     -0.01045378002029
  C   -2.88106904610558     -2.42474085417052     -0.00515257834477
  C   -3.57264238885792     -1.23215573237758     -0.00377353743836
  C   2.87290623135049     -0.00005013287260     -0.00786306594154
  C   1.43601685337453     -0.00002913471669     -0.01475633905486
  C   0.73497304201797      1.24741524334615     -0.01475079695348
  C   -0.73492911235297      1.24743456453309     -0.01474982975671
  C   -1.43600668863656      0.00000871365647     -0.01475391987323
  C   -2.87289571022228      0.00002690708107     -0.00785759904087
  C   1.47654387577095      2.42852617600614     -0.01043574609034
  C   -1.47646749527030      2.42856625044465     -0.01043228411868
  H   3.41944231821755     -3.37392972892147     -0.00228377029879
  H   0.96704222642313     -3.39139422224268     -0.01038471056039
  H   -0.96712673709641     -3.39136916195328     -0.01038363692648
  H   -3.41952633028505     -3.37383647437936     -0.00227852862195
  H   4.66436685887578     -1.21687294194734      0.00069249176671
  H   -4.66439015671054     -1.21675018104479      0.00070093905469
  C   3.57265345947163      1.23213143016678     -0.00376933267836
  C   -3.57260899016097      1.23222792924094     -0.00376168150025
  C   2.88107948082513      2.42471673929483     -0.00513664023953
  C   -2.88100373870689      2.42479432576504     -0.00512996145151
  H   4.66440098558798      1.21672492997600      0.00070300147494
  H   3.41953756837454      3.37381190674455     -0.00225505622938
  H   0.96713592173551      3.39134330126001     -0.01035688675718
  H   -0.96703053081589      3.39136826939876     -0.01035398135879
  H   -3.41943268612641      3.37390616434207     -0.00224661038802
  H   -4.66435704912638      1.21684634478264      0.00071312460648
  C   -0.00001938258451      0.00005546975673      4.28083239461826
  O   -0.00001975989075      0.00006182963463      3.11051064588835
  O   -0.00001968072239      0.00005012202748      5.45283729639826
   X  -0.00002005628382      0.00007775866461     -0.01475565370295
