36
Coordinates from ORCA-job gbm_co2_bridge_orthogonal_pbe_d3_TZVP
  C   3.57435104183004     -1.23290870571988     -0.01218921866055
  C   2.88273625928200     -2.42546368582145     -0.02023600992484
  C   1.47822672795358     -2.42948750517747     -0.02405807091597
  C   0.73640081414887     -1.24832363432329     -0.02035909910746
  C   -0.73375885433723     -1.24801450104132     -0.01803797062621
  C   -1.47529294747325     -2.42923486832395     -0.00267793180555
  C   -2.87975469348249     -2.42519236817397     -0.00034371196584
  C   -3.57089556952341     -1.23235264468732     -0.01183100821506
  C   2.87478894317361     -0.00064562348177     -0.01071954490634
  C   1.43763779257079     -0.00060717816688     -0.01726225227558
  C   0.73620182392817      1.24694409813100     -0.01887118557115
  C   -0.73350168565972      1.24663490474603     -0.02927826120500
  C   -1.43436385688771     -0.00056640046346     -0.02876688319957
  C   -2.87102039154359     -0.00045319643209     -0.02346849970762
  C   1.47805679293772      2.42803558641923     -0.00949671557592
  C   -1.47461165866520      2.42765689769329     -0.03162529669298
  H   3.42124118636784     -3.37451823524071     -0.02352891406937
  H   0.96881819789016     -3.39226489247015     -0.03195490339670
  H   -0.96585916129163     -3.39195935870087      0.01056115068700
  H   -3.41842216022241     -3.37410214684617      0.01089946291746
  H   4.66608597096388     -1.21760324530019     -0.00791234181904
  H   -4.66266717568564     -1.21668229013669     -0.00938080478740
  C   3.57433883874229      1.23158232440467     -0.00265680676783
  C   -3.57065621487861      1.23166077483246     -0.02495050908853
  C   2.88252841470539      2.42407120455340     -0.00103580843785
  C   -2.87900442487683      2.42413818018636     -0.02957290439537
  H   4.66606755792323      1.21630478014472      0.00235993047067
  H   3.42095379019725      3.37316613347762      0.00573817931768
  H   0.96861874018015      3.39080943172312     -0.00845509415888
  H   -0.96507134610655      3.39039085988426     -0.03302416909133
  H   -3.41738287704264      3.37329711558535     -0.03130661940046
  H   -4.66242645730545      1.21631752658780     -0.02171737950231
  C   -1.09414814422603      0.62899925029869      4.36754198992027
  O   -1.08992093863540      0.62660442220510      3.19709609054070
  O   -1.09934430259573      0.63275921927831      5.53952906838320
  X -1.07694007235542      0.61812674035626     -0.02900772696628
