47
Coordinates from ORCA-job gbm_co2_bridge_parallel_dsd_d3_TZVP
  C   2.83497109334723      2.44405458378788      0.00493369954011
  C   1.40861505672942      2.44878860319741     -0.01390018982192
  C   0.69751670750738      3.68552946340480     -0.01269071054436
  C   1.42640064227281      4.88481675396778      0.00035113816503
  C   2.81510063336171      4.87095405239518      0.01529475516376
  C   3.51527761943830      3.67149135595424      0.01724239272097
  C   0.69964013589414      1.22724808467910     -0.02093139467598
  C   -0.72126302044346      1.23107249477665     -0.04139497177285
  C   -1.42818902357328      2.48034672902158     -0.03755161072784
  C   -0.72005895708483      3.66281323608707     -0.02747197547996
  C   3.51729644209006      1.20137974482172      0.00893229424294
  C   2.84083356180493      0.00051570883738      0.00076331540000
  C   1.40615186345746     -0.00523461971939     -0.02112594440597
  C   0.70097128083673     -1.21925897364957     -0.01410791034749
  C   -0.71955530794869     -1.21647259998866     -0.02816023960205
  C   -1.42701120098437      0.01597219548024     -0.03163995008160
  C   -2.86240054346312      0.01089471733074     -0.03951164626969
  C   -3.54594359970370      1.27670382957969     -0.04789289406575
  C   -2.86635109529137      2.44681732124136     -0.04885253651989
  C   -1.42929196468429     -2.43745338998888     -0.01022026909848
  C   -2.85588657116274     -2.43268588664834     -0.01380868490002
  C   -3.53859665219375     -1.19009896086374     -0.02666545733904
  C   3.52518244741453     -1.26520007142101      0.01027611902127
  C   2.84543994975004     -2.43554165894593      0.01060830933133
  C   1.40696489079976     -2.46834642923394     -0.00156567713893
  C   0.69910362319799     -3.65095882770599      0.00859972885017
  C   -0.71837817786779     -3.67409390421415      0.00343205805376
  C   -1.44742191045121     -4.87320964413070      0.01691496469342
  C   -2.83622006273836     -4.85940855179265      0.01480903894855
  C   -3.53640043530130     -3.66004962054894      0.00063274797204
  H   0.89080165386485      5.82612307104138      0.00010567525080
  H   3.35853803777953      5.80672082063908      0.02539674645825
  H   4.59821473087709      3.67279682488876      0.03030083635638
  H   -1.25681389404992      4.60514913822118     -0.02613375222872
  H   4.60170221693039      1.20215455057942      0.02421256989042
  H   -4.62910336580061      1.27251426752225     -0.05160655960993
  H   -3.39947672609050      3.38970714189429     -0.05003708718218
  H   -4.62307939350796     -1.19086985439493     -0.02869447658664
  H   4.60835355024320     -1.26077477835508      0.02212132452347
  H   3.37836465107319     -3.37857935548781      0.02022222643137
  H   1.23579612747125     -4.59328513753720      0.02092627196782
  H   -0.91194014567007     -5.81451414847508      0.02838299060196
  H   -3.37974499773040     -5.79512025444411      0.02525892314788
  H   -4.61941524125317     -3.66128300835374     -0.00084212276804
  C   -0.91807587533681      0.53509349753449      3.09575685325842
  O   0.08475246344478     -0.05429195512267      3.06350256373792
  O   -1.92049421725507      1.12427544413884      3.14340651743927
