69
Coordinates from ORCA-job gbm_co2_bridge_parallel_dsd_d3_TZVP
  C   3.91164509582822     -4.27224340780928      0.00776386855288
  C   2.48224847442092     -4.27690628701620      0.00266954918147
  C   1.76904671892328     -5.51567227242222      0.00800648981476
  C   2.50215560831131     -6.71797337843317      0.02079876168077
  C   3.89043656877199     -6.70340246472355      0.02634470778617
  C   4.59184122847824     -5.50525196293124      0.02056215751570
  C   1.77452079558683     -3.05739223526691     -0.01395017670810
  C   0.35276875387814     -3.05991609969505     -0.01365563266706
  C   -0.35822732569240     -4.30459942247871     -0.00853848595895
  C   0.36017618731373     -5.49655037514410      0.00386946944407
  C   -0.35557291793504     -1.84381041640033     -0.03263716183067
  C   -1.77747625795220     -1.84227034358561     -0.02342189216248
  C   -2.48362763526214     -3.09215271650689     -0.01685505183332
  C   -1.77783373866930     -4.27602767579137     -0.00839194580230
  C   -2.48148874050773     -0.62922268960801     -0.02843573515779
  C   -3.91697260304918     -0.62224667412722     -0.01380367142283
  C   -4.60113935709589     -1.88729490480159     -0.00989372685159
  C   -3.92142458921029     -3.05855000283926     -0.01007103799782
  C   4.59400685276798     -3.03949778291793      0.00340310070476
  C   3.91550315207143     -1.82439251184172     -0.00900325838232
  C   2.48206334951096     -1.82419573837273     -0.01391368733472
  C   1.77760340368953     -0.60585284150663     -0.03287767721965
  C   0.35355328142548     -0.60886783584112     -0.03031387361283
  C   -0.35336304104400      0.60923808008318     -0.04069162659916
  C   -1.77728639612813      0.60608919424434     -0.02505702415663
  C   -2.48187988638096      1.82453500402001     -0.02085033281424
  C   -3.91525898800206      1.82465955711712     -0.00678980629243
  C   -4.59473743114509      0.57790112003663     -0.00754861275363
  C   4.59500151027032     -0.57764820784782     -0.00906552692359
  C   3.91725373126685      0.62250058252242     -0.01748875314748
  C   2.48170381180422      0.62946599750157     -0.02382072318106
  C   1.77775468830258      1.84255905616467     -0.02872931598945
  C   0.35581710301596      1.84400078277587     -0.02515988406425
  C   -0.35254320546624      3.06026972311927     -0.02100156987984
  C   -1.77423960269187      3.05761164820142     -0.01018582554493
  C   -2.48200659494061      4.27719529528522     -0.00100918797070
  C   -3.91138637495947      4.27252069788317      0.00751270522276
  C   -4.59377702270971      3.03978372515446      0.00330071579417
  C   4.60140238294044      1.88754288088816     -0.01092610645170
  C   3.92168854751358      3.05879880050864     -0.01073998320778
  C   2.48387412522575      3.09239335538214     -0.01438701206865
  C   1.77808994671323      4.27628320265161     -0.00817305367624
  C   0.35848244942935      4.30487117499385     -0.00719479235129
  C   -0.35992611424245      5.49684689469932      0.00287262634485
  C   -1.76880112362048      5.51594175987458      0.00730053792400
  C   -2.50190812858905      6.71825531764641      0.01871152826903
  C   -3.89018525185789      6.70368590406795      0.02443248554816
  C   -4.59158807439053      5.50553567542079      0.01892731599045
  H   1.96647183965162     -7.65925750397992      0.02548350122914
  H   4.43365832597631     -7.63944722800566      0.03599239390243
  H   5.67487886424191     -5.50713206586456      0.02506607369467
  H   -0.17728681798800     -6.43857890265920      0.00926888700327
  H   -2.31695829202033     -5.21718067565950     -0.00162455480798
  H   -5.68439652946159     -1.88309571673598     -0.00262119480498
  H   -4.45522052569464     -4.00118167767577     -0.00510334539352
  H   5.67857369281805     -3.04020116607604      0.00864867481910
  H   -5.67934077407997      0.57669293202377      0.00255513388611
  H   5.67963263038656     -0.57648303236700     -0.00246751260200
  H   -5.67832422225937      3.04049034434314      0.01161028092004
  H   5.68467400421748      1.88334855081789     -0.00616323823218
  H   4.45547668770069      4.00142095901418     -0.00364601158728
  H   2.31723733067497      5.21739496089219      0.00170251292770
  H   0.17752348530787      6.43886319005375      0.01098079734211
  H   -1.96621434542317      7.65952969256722      0.02408411733026
  H   -4.43340723330993      7.63973746287133      0.03337977543080
  H   -5.67462066801784      5.50740601752776      0.02446343227601
  C   -0.00267223203743     -0.00303751771588      3.06631019518602
  O   1.00761184149314      0.57470889234924      3.07291998311810
  O   -1.01297242809395     -0.58075369805505      3.07308423060366
