76
Coordinates from ORCA-job gbm_co2_hollow_parallel_b3lyp_d3_TZVP
  C   0.70733861244883      1.22573132986033     -0.04855473492651
  C   -0.70740661501227      1.22515957385336     -0.04853152905642
  C   -1.41478566987159      0.00013779935294     -0.04845254931228
  C   -0.70733888275263     -1.22439354048550     -0.04839081031628
  C   0.70741539340462     -1.22380660001518     -0.04839701680443
  C   1.41478554787017      0.00121612752198     -0.04848502844271
  C   -1.41971243077437      2.45840075552604     -0.03321809017831
  C   -2.83470854865678      2.45651575990265     -0.02312299987853
  C   -3.54465462293572      1.22575241158717     -0.02251398434713
  C   -2.83812841957185     -0.00007516183264     -0.03257146420661
  C   1.41873548527869      2.45881745773508     -0.03299600120246
  C   0.70981463729033      3.68334649156267     -0.02356858217470
  C   -0.71110465985901      3.68322093928785     -0.02380654190342
  C   2.83811155733752      0.00142768657726     -0.03260874490742
  C   3.54404216693058      1.22746929421096     -0.02138818790829
  C   2.83352337406539      2.45768330941804     -0.02170218589041
  C   1.41971375798521     -2.45704587460677     -0.03263782239941
  C   2.83470866558805     -2.45515679149993     -0.02243317682220
  C   3.54464401586703     -1.22439198598105     -0.02218015961824
  C   -1.41874088967117     -2.45747454111885     -0.03247501632478
  C   -0.70981920519380     -3.68199133126574     -0.02262792470419
  C   0.71110222833148     -3.68186374935988     -0.02282730751536
  C   -3.54404792343924     -1.22612017663687     -0.02105717784165
  C   -2.83352222590806     -2.45633108200173     -0.02108364929718
  C   -4.96942136728556      1.21987947903160     -0.00716828814921
  C   -5.64694725156706     -0.00062447545405     -0.00041943519645
  C   -4.96876179748224     -1.22079019167288     -0.00549553518994
  C   -5.65120037821490     -2.47996858326573      0.00654280374368
  C   -4.97243522225401     -3.65518000368556      0.00636333988899
  C   -3.54072060088391     -3.69317810677696     -0.00577413501248
  C   -2.82258931789752     -4.89029137697252     -0.00094657653667
  C   -1.42681477406701     -4.91326610986006     -0.00757521658230
  C   -0.67737718982950     -6.13380812628793      0.00261299839569
  C   0.67982526539756     -6.13366856259254      0.00203358822094
  C   1.42876347649789     -4.91282343326000     -0.00856076955679
  C   2.82458221164854     -4.88917384221479     -0.00303557931488
  C   3.54241676623985     -3.69184124707491     -0.00804578950234
  C   4.97414051171219     -3.65309931475738      0.00307407690429
  C   5.65229716175385     -2.47748921563478      0.00383812042243
  C   4.96940778923516     -1.21851890073308     -0.00678792669926
  C   5.64694262107641      0.00198424079732     -0.00040371136347
  C   4.96875807389517      1.22214522267688     -0.00584083992162
  C   5.65119790053045      2.48132767073792      0.00581287818694
  C   4.97243696034589      3.65654242446392      0.00529326379393
  C   3.54072065753428      3.69454008963035     -0.00680388424017
  C   2.82259001760106      4.89165492410848     -0.00234622733925
  C   1.42681096775782      4.91462400966934     -0.00896178824994
  C   0.67737340543368      6.13516996401471      0.00076233441238
  C   -0.67982995983285      6.13503295422842      0.00013493291979
  C   -1.42876643012246      4.91418396689330     -0.01004536339941
  C   -2.82458722588309      4.89053790555272     -0.00458929287794
  C   -3.54242133615291      3.69320466398299     -0.00921476889617
  C   -4.97414672717561      3.65446190610390      0.00186535031518
  C   -5.65230953369376      2.47885528166228      0.00301579328512
  H   -6.73108471221379     -0.00089641766389      0.01161942330090
  H   -6.73460587277182     -2.47596438346301      0.01733103590021
  H   -5.51032189525224     -4.59563861108052      0.01696585764885
  H   -3.36450900893238     -5.82927437217066      0.01081849992500
  H   -1.22249689072013     -7.07011028981891      0.01224943390663
  H   1.22524614508289     -7.06979693360649      0.01114174393941
  H   3.36687469297820     -5.82796069184470      0.00793561006066
  H   5.51253066193435     -4.59328371992153      0.01248097809660
  H   6.73571179013757     -2.47302725138061      0.01393127855839
  H   6.73107997498910      0.00225499102401      0.01164600025181
  H   6.73460389493774      2.47732431208901      0.01657641712770
  H   5.51032743377932      4.59700254647023      0.01558651048691
  H   3.36450896097644      5.83064223239498      0.00909504984976
  H   1.22249245038491      7.07147618751424      0.01007231576937
  H   -1.22524952838471      7.07116552091921      0.00887349755366
  H   -3.36688009399274      5.82932897864799      0.00600116559627
  H   -5.51253559094562      4.59465080765863      0.01091854987810
  H   -6.73572420264028      2.47439967471331      0.01307648199265
  C   0.00004744616616     -0.01655499847663      3.21300351423598
  O   1.07253969950261      0.42454548417895      3.21531912437530
  O   -1.07245076848425     -0.45760483810771      3.22013009490460
   X  0.00000339039981      0.00067845702095     -0.04846924984091
