75
Coordinates from ORCA-job gbm_co2_top_parallel_b3lyp_d3_TZVP
  C   0.70752479908253      1.22519518509808     -0.03475472590751
  C   -0.70723594250009      1.22531742789602     -0.03591142577977
  C   -1.41420966262866      0.00036333782091     -0.03087009142682
  C   -0.70697567063371     -1.22425626638685     -0.02903974161847
  C   0.70710785330899     -1.22470950964920     -0.03273916731485
  C   1.41455240610754     -0.00023937528187     -0.03733735802764
  C   -1.41855146850679      2.45888382339656     -0.02695049887342
  C   -2.83368875288869      2.45760413698724     -0.01724688074466
  C   -3.54409650201238      1.22712471123058     -0.01530070895176
  C   -2.83787934882516      0.00080979843887     -0.02046481224012
  C   1.41970554892198      2.45861725060491     -0.03468150267000
  C   0.71141106948848      3.68304147677330     -0.02814768348875
  C   -0.70918056741093      3.68341595823226     -0.02314640124991
  C   2.83837504309078      0.00009982306245     -0.02740038781505
  C   3.54459273488839      1.22655226533862     -0.02158904178648
  C   2.83426237128879      2.45699283091650     -0.02656747248049
  C   1.41887210672757     -2.45752608040900     -0.02238997693072
  C   2.83394285095969     -2.45644144332630     -0.01669218983721
  C   3.54463218206733     -1.22622697144068     -0.01776779083517
  C   -1.41903705158078     -2.45703742859355     -0.01854527127974
  C   -0.71060935484192     -3.68191935120413     -0.01287620703214
  C   0.71012090270920     -3.68220198145664     -0.01420829884401
  C   -3.54441373132173     -1.22517037313811     -0.01263116766707
  C   -2.83404047435785     -2.45558803158763     -0.01193134094397
  C   -4.96896999399367      1.22165794741222     -0.00459915212474
  C   -5.64694575871848      0.00130081536357      0.00000971833352
  C   -4.96925285931693     -1.21923863277533     -0.00306219232650
  C   -5.65203796097400     -2.47829533911970      0.00448735150206
  C   -4.97348546100075     -3.65370538658395      0.00470205940749
  C   -3.54172671391346     -3.69227445038988     -0.00241265767973
  C   -2.82391529171469     -4.88961894680602      0.00093879348744
  C   -1.42809054177231     -4.91294197876819     -0.00322926172957
  C   -0.67916164965421     -6.13382424485020      0.00335369101341
  C   0.67804370536602     -6.13405551443030      0.00270073817060
  C   1.42730824922578     -4.91338806225093     -0.00489782676146
  C   2.82316817168547     -4.89045644105555     -0.00184357407213
  C   3.54131705436591     -3.69331628212611     -0.00603820807054
  C   4.97309715901410     -3.65497828570568      0.00169690131822
  C   5.65192118854061     -2.47971051092298      0.00178946609889
  C   4.96943391737993     -1.22048394667963     -0.00666906746382
  C   5.64717182613858      0.00003581885329     -0.00266946414292
  C   4.96953520450849      1.22059313252562     -0.00860474679494
  C   5.65221891379666      2.47966928156388     -0.00095393016451
  C   4.97353241063607      3.65495387878387     -0.00353468668694
  C   3.54190742529120      3.69346438627043     -0.01462035680116
  C   2.82428843382191      4.89064978620983     -0.01114163861382
  C   1.42864602344720      4.91379873550137     -0.01639416080817
  C   0.67994386491537      6.13464165616247     -0.00664518449906
  C   -0.67719612456439      6.13516290945773     -0.00451565621908
  C   -1.42647919458399      4.91458357939910     -0.01120606940965
  C   -2.82234273237815      4.89156302127334     -0.00475582883878
  C   -3.54081538400387      3.69459391195337     -0.00739278515779
  C   -4.97258765376665      3.65634446443548      0.00137682277230
  C   -5.65129932447228      2.48100438248347      0.00234078415692
  H   -6.73112581793853      0.00144778649110      0.00780103291911
  H   -6.73547939047047     -2.47411480197056      0.01085452603650
  H   -5.51173785707491     -4.59399954213880      0.01128124618812
  H   -3.36613621751009     -5.82847384529893      0.00844140528274
  H   -1.22462251341263     -7.06995215140311      0.00992774795403
  H   1.22321739824892     -7.07035207713080      0.00889602259621
  H   3.36512842628441     -5.82945740253952      0.00586712859303
  H   5.51117349484712     -4.59537022964624      0.00881961169512
  H   6.73535841170891     -2.47576364057715      0.00894222465510
  H   6.73134080015592      0.00005540326762      0.00671080089199
  H   6.73563194365437      2.47552030993370      0.00841721414196
  H   5.51163632182457      4.59530418967772      0.00432283831895
  H   3.36644969511111      5.82946937646662     -0.00051444543743
  H   1.22559762653306      7.07062771264071      0.00093783495281
  H   -1.22229424006527      7.07147178578715      0.00408096858864
  H   -3.36415469192353      5.83064215948128      0.00385071425391
  H   -5.51066444404968      4.59673447038793      0.00780247071872
  H   -6.73474182485894      2.47709575764058      0.00950332827415
  C   0.70489749547784      1.21690898981198      3.17788661645234
  O   1.14339924056220      2.29046674653982      3.18101403986371
  O   0.26610989845758      0.14332710407198      3.18613593891048
