75
Coordinates from ORCA-job gbm_co2_top_orthogonal_b3lyp_d3_TZVP
  C   0.70705830787349      1.22409085818261     -0.03863083667195
  C   -0.70663814479198      1.22407976800605     -0.03200099378296
  C   -1.41409576894912     -0.00049418350797     -0.02457653427974
  C   -0.70712560025892     -1.22548647032382     -0.02205037480324
  C   0.70723069140618     -1.22517815890864     -0.02475179629615
  C   1.41396023933526     -0.00017951780895     -0.03216188352058
  C   -1.41880775492128      2.45676367914481     -0.02031294638836
  C   -2.83396333624490      2.45567932266015     -0.01059687867233
  C   -3.54458458389464      1.22529845125269     -0.00966974681675
  C   -2.83800238484037     -0.00076611520535     -0.01478398986925
  C   1.41858653358878      2.45655085330092     -0.02788377108863
  C   0.71034872993694      3.68139394451693     -0.01647665775291
  C   -0.71039040005552      3.68166356546588     -0.01377062428074
  C   2.83758736159553     -0.00053030692573     -0.02075934741882
  C   3.54411450110749      1.22545791527108     -0.01428212638905
  C   2.83344977564219      2.45569002360099     -0.01674321064006
  C   1.41901136022940     -2.45842011710139     -0.01519728184786
  C   2.83410465496884     -2.45724452039105     -0.01033883395231
  C   3.54428099953170     -1.22660544340917     -0.01130046376729
  C   -1.41904176224611     -2.45863256391818     -0.01327788178102
  C   -0.71041910024978     -3.68355853144905     -0.00839378154358
  C   0.71043895324047     -3.68342424609345     -0.00868116510187
  C   -3.54453809113628     -1.22694391713156     -0.00825843501509
  C   -2.83416523001783     -2.45747968904259     -0.00818862424054
  C   -4.96949663870856      1.21954568634756     -0.00012285512875
  C   -5.64739543215311     -0.00086437126139      0.00313487917653
  C   -4.96945130140703     -1.22125756156694     -0.00022467704660
  C   -5.65200520251246     -2.48047154709582      0.00530669727253
  C   -4.97341835201339     -3.65588481467782      0.00489544308753
  C   -3.54163635533001     -3.69436455142216     -0.00076504087296
  C   -2.82367169997852     -4.89165299068434      0.00186879807180
  C   -1.42780549833310     -4.91472123407064     -0.00097456433216
  C   -0.67853115733021     -6.13540091697505      0.00445913158820
  C   0.67870461738573     -6.13530466583040      0.00465301823078
  C   1.42788230675438     -4.91456131926528     -0.00088593148263
  C   2.82374608522445     -4.89141520564356      0.00223159252757
  C   3.54164208029478     -3.69409834265812     -0.00104584450173
  C   4.97341077587703     -3.65557254177936      0.00610065673499
  C   5.65186754056196     -2.48008750526971      0.00676880619373
  C   4.96920185386343     -1.22093418811578     -0.00067942675813
  C   5.64708871096230     -0.00053908319607      0.00344075134067
  C   4.96901308368359      1.21977517689019     -0.00155464122521
  C   5.65165933896990      2.47890803555266      0.00730830314341
  C   4.97288323841875      3.65420019119872      0.00692725087314
  C   3.54110524846996      3.69245335550399     -0.00328727345384
  C   2.82336106925178      4.88981558703765      0.00162396804754
  C   1.42753821454401      4.91265421041856     -0.00299663474576
  C   0.67846614757198      6.13344168067947      0.00753297327950
  C   -0.67875911439099      6.13357063850333      0.00817421198066
  C   -1.42782106042670      4.91278708982830     -0.00073194385445
  C   -2.82368066661128      4.88979487528038      0.00450483000483
  C   -3.54157361545468      3.69249864451385      0.00032966966896
  C   -4.97336135338293      3.65405875727935      0.00801670735154
  C   -5.65207777968223      2.47872308237916      0.00730403125715
  H   -6.73159402606271     -0.00088655786009      0.00976848922385
  H   -6.73547127496390     -2.47639717583037      0.01033017163854
  H   -5.51164429525079     -4.59621795199033      0.00957172789627
  H   -3.36574312133680     -5.83061591615969      0.00747004391741
  H   -1.22369046797339     -7.07173155004247      0.00913577814496
  H   1.22397486544355     -7.07157268964819      0.00950155685904
  H   3.36585854600357     -5.83035266044252      0.00867768883770
  H   5.51169019988397     -4.59586957638457      0.01208461966019
  H   6.73533068330167     -2.47589485045583      0.01334241475320
  H   6.73127990966916     -0.00045973299221      0.01210942455067
  H   6.73511253211552      2.47485855671569      0.01553230682451
  H   5.51092431680585      4.59463562312738      0.01504659332726
  H   3.36542518814954      5.82876870086675      0.01140306535355
  H   1.22381221214250      7.06965993040705      0.01567902747499
  H   -1.22400505409463      7.06983469253853      0.01663709766040
  H   -3.36573875287078      5.82875174406515      0.01340780569889
  H   -5.51150368628732      4.59443640242758      0.01481321422198
  H   -6.73553724862746      2.47468786472433      0.01347355049013
  C   0.71251050047549      1.24979471224880      4.24101042937576
  O   0.71107027068537      1.24289491492226      3.08165601338510
  O   0.71405266782317      1.25687274767687      5.40112728019784
