76
Coordinates from ORCA-job gbm_co2_bridge_parallel_b3lyp_d3_TZVP
  C   0.70552562542628      1.22572646889156     -0.03544270472189
  C   -0.70911806195961      1.22618976160412     -0.04161251064094
  C   -1.41664557509562      0.00051703057530     -0.04102016489928
  C   -0.70881000455219     -1.22430793806288     -0.03625151457929
  C   0.70534271720747     -1.22380642012049     -0.03305675369829
  C   1.41229320780479      0.00084202684285     -0.03237081053174
  C   -1.42170241740190      2.45916105322591     -0.03358742975745
  C   -2.83644458584109      2.45730076625447     -0.02754008464127
  C   -3.54658214214563      1.22711851394473     -0.02665191409212
  C   -2.84071434749599      0.00102987566523     -0.03205380332438
  C   1.41699058641586      2.45892758701262     -0.02297636057096
  C   0.70798761841703      3.68369536728093     -0.01739967327198
  C   -0.71293624976835      3.68373760214888     -0.02165958364598
  C   2.83580831161258      0.00106717019694     -0.01942017012014
  C   3.54219888587837      1.22716333664127     -0.01149174751201
  C   2.83201336450708      2.45765276340348     -0.01244258565824
  C   1.41702938440759     -2.45665248977012     -0.02056824046872
  C   2.83199314139640     -2.45533585462857     -0.01211170112686
  C   3.54227978258138     -1.22491933425478     -0.01151845989296
  C   -1.42093424180453     -2.45712429172884     -0.02380420848603
  C   -0.71219908890287     -3.68188076350597     -0.01407495183830
  C   0.70851788701682     -3.68153594340995     -0.01340246181634
  C   -3.54670337827377     -1.22514000383647     -0.02003445539614
  C   -2.83609237758474     -2.45563056189037     -0.01694876925828
  C   -4.97113477627261      1.22135543963232     -0.01242299305517
  C   -5.64908033723483      0.00102774766189     -0.00473457221110
  C   -4.97153360787556     -1.21942051716646     -0.00744647061923
  C   -5.65399812869730     -2.47860087198046      0.00403053976513
  C   -4.97536728893025     -3.65397280852329      0.00553664251290
  C   -3.54358332057431     -3.69248853270010     -0.00340785725587
  C   -2.82545281696563     -4.88967146089488      0.00212001329863
  C   -1.42958511079609     -4.91292516290480     -0.00226922805523
  C   -0.68039637089989     -6.13362916269684      0.00671069477025
  C   0.67681563651622     -6.13339624312069      0.00677184996034
  C   1.42588229810084     -4.91260365320496     -0.00170270114121
  C   2.82169431900258     -4.88936243461350      0.00289848281679
  C   3.53956396402877     -3.69205611748259     -0.00096870207380
  C   4.97131474600463     -3.65365064768108      0.00773448743760
  C   5.64984367934042     -2.47824606052379      0.00822628454019
  C   4.96708362694843     -1.21918509697840      0.00007838767231
  C   5.64492587484083      0.00123235307985      0.00489940788158
  C   4.96701371775114      1.22159178637079      0.00062641768586
  C   5.64958215734138      2.48076886997166      0.00968808013353
  C   4.97106760906073      3.65619421237171      0.00938312467890
  C   3.53931204606949      3.69452524963893     -0.00044128307507
  C   2.82113156410565      4.89168255729656      0.00304989474502
  C   1.42527728751720      4.91489643967727     -0.00372996602959
  C   0.67592810555631      6.13554362683260      0.00404337369688
  C   -0.68129293409239      6.13544951072892      0.00154556620420
  C   -1.43041850042950      4.91475752985879     -0.00984065199175
  C   -2.82612743724314      4.89115600249894     -0.00730386609856
  C   -3.54387099508320      3.69380781546832     -0.01397898677994
  C   -4.97550465877325      3.65555570478276     -0.00422449774277
  C   -5.65397833195045      2.48024425803166     -0.00346299171819
  H   -6.73321875564557      0.00121799080535      0.00625353487805
  H   -6.73742314942083     -2.47452559158037      0.01236596949379
  H   -5.51352350378608     -4.59429531481353      0.01487172482797
  H   -3.36753928374332     -5.82858570193120      0.01179964954014
  H   -1.22554226661784     -7.06992938117201      0.01441574034143
  H   1.22216865348414     -7.06958085844382      0.01457356376521
  H   3.36383021775995     -5.82825424526729      0.01179430078083
  H   5.50949675778777     -4.59397559490876      0.01517085296531
  H   6.73327672157395     -2.47404442215941      0.01602314815123
  H   6.72909418007948      0.00127129039081      0.01409809222056
  H   6.73301592732364      2.47664655511678      0.01798027947332
  H   5.50923047568461      4.59652309141769      0.01741602856128
  H   3.36311242306383      5.83065698231154      0.01288970601466
  H   1.22107934424648      7.07182706675188      0.01338336544320
  H   -1.22659376866219      7.07165620721723      0.00913942321963
  H   -3.36844914631329      5.82991009923820      0.00315223321346
  H   -5.51357402963454      4.59590960227626      0.00488580068138
  H   -6.73737699966600      2.47591962500569      0.00621807843022
  C   -1.01561287021948      0.59090695608996      3.12928023495894
  O   -0.01328090027129      0.00782376852733      3.11021625145345
  O   -2.01770626177161      1.17383287993353      3.16142183129882
   -  -1.06142382346341      0.61581893928318     -0.04131822971591
