75
Coordinates from ORCA-job gbm_co2_top_parallel_pbe_d3_TZVP
  C   0.71048997680915      1.23068359617156     -0.03156437876743
  C   -0.71080479973983      1.23051942380373     -0.03333422068611
  C   -1.42085423608323     -0.00009605367983     -0.02909949545271
  C   -0.71023992263912     -1.23024585018653     -0.02657088746321
  C   0.71040623795047     -1.23049784410726     -0.02920845921261
  C   1.42105447920335     -0.00024136635528     -0.03343365738673
  C   -1.42382476289227      2.46651457746456     -0.02680298844963
  C   -2.84547128560298      2.46489744776161     -0.01925229965149
  C   -3.55699950868319      1.23199322636917     -0.01736135629885
  C   -2.84747149883973      0.00010573151299     -0.02090553216165
  C   1.42408846930172      2.46675255077751     -0.03239031541733
  C   0.71208716419274      3.69673735913466     -0.02763750483041
  C   -0.71131089751154      3.69680062472604     -0.02366170250879
  C   2.84796265516374      0.00033417280862     -0.02685304553884
  C   3.55711370593461      1.23256711501431     -0.02357845122358
  C   2.84529324990602      2.46520537966996     -0.02754675882943
  C   1.42394208633153     -2.46583826726398     -0.02101756676199
  C   2.84555230735920     -2.46429711547818     -0.01745783954179
  C   3.55745372324303     -1.23161471074433     -0.01930378994039
  C   -1.42353142416670     -2.46575843491165     -0.01781556296079
  C   -0.71149181465842     -3.69608253838704     -0.01284212490852
  C   0.71195124622982     -3.69617552205820     -0.01410724863678
  C   -3.55691873461808     -1.23170025307847     -0.01401375231146
  C   -2.84504764186478     -2.46434997327892     -0.01279084350188
  C   -4.98906713968827      1.22664569497287     -0.00893408079095
  C   -5.66945642918077      0.00012411986081     -0.00481874481421
  C   -4.98897042408599     -1.22636565069083     -0.00658881515982
  C   -5.67300886419014     -2.48594414807447      0.00000812234485
  C   -4.98929838079683     -3.66990953114670      0.00078847548367
  C   -3.55643979754138     -3.70721250324138     -0.00473084121122
  C   -2.83447473730674     -4.90972275883154     -0.00154609719294
  C   -1.43208401785461     -4.93363488647376     -0.00477830761220
  C   -0.68328758974877     -6.15583106818380      0.00071205363192
  C   0.68391247690408     -6.15588581218278     -0.00009367210867
  C   1.43265485909330     -4.93366436129719     -0.00669003288572
  C   2.83507046051405     -4.90966912659807     -0.00492757256348
  C   3.55701434065479     -3.70713839459014     -0.00902382079071
  C   4.98988502547944     -3.66959913431409     -0.00402789234379
  C   5.67355268664893     -2.48559327830592     -0.00509502605036
  C   4.98949668818341     -1.22601628420442     -0.01187182049625
  C   5.66966030183501      0.00065629831101     -0.00992598067451
  C   4.98923123916875      1.22718459707129     -0.01467640097314
  C   5.67315443413459      2.48678811898117     -0.00972941095778
  C   4.98932567974431      3.67063153294259     -0.01162841670643
  C   3.55658185114898      3.70787077503937     -0.01909790113780
  C   2.83477505478647      4.91027189152854     -0.01614985929974
  C   1.43255503168536      4.93409429385728     -0.01920998349023
  C   0.68387872804768      6.15622605400488     -0.01183027223969
  C   -0.68327283860675      6.15645049941839     -0.00995701727513
  C   -1.43209056643630      4.93431673710725     -0.01482650654606
  C   -2.83451097156825      4.91025213709946     -0.01004060093418
  C   -3.55670424588502      3.70784542623249     -0.01189153462185
  C   -4.98955816687420      3.67039652397215     -0.00510110303856
  C   -5.67304607739703      2.48628630288558     -0.00397647209424
  H   -6.76266161365192      0.00010272772540      0.00126989813956
  H   -6.76521594503357     -2.48129157923066      0.00508453320344
  H   -5.53125435754335     -4.61818221135277      0.00649311171013
  H   -3.38106008787627     -5.85647488203444      0.00481714622308
  H   -1.23349058956660     -7.09934268817695      0.00641492733779
  H   1.23409582779547     -7.09940854983793      0.00497764438772
  H   3.38170811164726     -5.85639189823292      0.00116801008497
  H   5.53195038236092     -4.61781290067638      0.00163721597403
  H   6.76576027270928     -2.48090746027773     -0.00028226828726
  H   6.76286458018560      0.00082046800814     -0.00349055466730
  H   6.76534692150891      2.48218712568411     -0.00318501610624
  H   5.53115791147188      4.61895385909005     -0.00598434523222
  H   3.38133632030488      5.85698725282718     -0.00829097553912
  H   1.23419051918018      7.09965293595761     -0.00621257641913
  H   -1.23340267912243      7.09998720603813     -0.00346052626195
  H   -3.38102425417854      5.85704594018008     -0.00364202505860
  H   -5.53165182660316      4.61859102821673     -0.00032882407209
  H   -6.76525638038448      2.48156922152453      0.00168528747976
  C   0.70638846274028      1.22331261435717      3.26289528621211
  O   1.28051533078419      2.24413354716178      3.26589389622836
  O   0.13219174807779      0.20242305221377      3.27075315965460
