76
Coordinates from ORCA-job gbm_co2_hollow_parallel_pbe_d3_TZVP
  C   0.71076998918023      1.23083418788053     -0.04309087775186
  C   -0.71039204318600      1.23047117432091     -0.04307766993759
  C   -1.42121015456774     -0.00016465927140     -0.04305540773167
  C   -0.71076698065396     -1.23058410525805     -0.04301477856427
  C   0.71040724304062     -1.23021768534711     -0.04302699779515
  C   1.42121412578942      0.00042373904304     -0.04304921982807
  C   -1.42400182982602      2.46634918116708     -0.03118151026991
  C   -2.84555879040566      2.46455579326285     -0.02360635659843
  C   -3.55716431244229      1.23161090457226     -0.02337577662153
  C   -2.84774976356667     -0.00014144862004     -0.03094937480255
  C   1.42391891951900      2.46630685508190     -0.03099568306894
  C   0.71180181076033      3.69649971502494     -0.02341423111361
  C   -0.71176204818451      3.69660873932679     -0.02362859386929
  C   2.84774279865916      0.00039401685800     -0.03094011180474
  C   3.55698990696548      1.23212942732471     -0.02221587885289
  C   2.84525730690246      2.46477022171553     -0.02224082205123
  C   1.42400684718411     -2.46609792950253     -0.03108446830242
  C   2.84556339715726     -2.46430334446592     -0.02349249726894
  C   3.55716072008363     -1.23135585635560     -0.02329920454261
  C   -1.42392113680326     -2.46606314025586     -0.03090009145708
  C   -0.71180114823230     -3.69625258075164     -0.02327705846487
  C   0.71176411413349     -3.69635677749057     -0.02348918004522
  C   -3.55699342609736     -1.23187941688735     -0.02219840104270
  C   -2.84525946740336     -2.46452247181461     -0.02217632984200
  C   -4.98918628002875      1.22628308466099     -0.01190590977036
  C   -5.66951850526394     -0.00021606277490     -0.00695447768159
  C   -4.98896069607873     -1.22660969182444     -0.01057880207109
  C   -5.67302554275044     -2.48613150566217     -0.00149499236116
  C   -4.98940061772455     -3.67009340624800     -0.00147662825936
  C   -3.55658774638938     -3.70733008376647     -0.01054892897178
  C   -2.83468080758052     -4.90984714379059     -0.00687417887407
  C   -1.43233092479795     -4.93381198429224     -0.01179804822590
  C   -0.68345418921457     -6.15593882046548     -0.00406085959472
  C   0.68374166888380     -6.15602146126354     -0.00459994480632
  C   1.43253752793814     -4.93384100578347     -0.01274785852442
  C   2.83494051285459     -4.90969319228866     -0.00883734185553
  C   3.55696347370084     -3.70719936257207     -0.01273879264298
  C   4.98980250169504     -3.66970678883256     -0.00459099033824
  C   5.67323863379722     -2.48558830947009     -0.00404347131611
  C   4.98918230729603     -1.22602834057971     -0.01179738451200
  C   5.66951661556780      0.00047026658455     -0.00688440859062
  C   4.98895713338791      1.22686221514375     -0.01057004882244
  C   5.67302364899550      2.48638326870336     -0.00151266989055
  C   4.98939840798020      3.67034523137181     -0.00154335240981
  C   3.55658585173264      3.70757890446620     -0.01063872209836
  C   2.83467960906089      4.91009691568237     -0.00702511871853
  C   1.43232954910340      4.93406072682614     -0.01197603989916
  C   0.68345392146544      6.15618966547835     -0.00431738627870
  C   -0.68374203172978      6.15627674699421     -0.00490382680617
  C   -1.43253584877936      4.93409353671762     -0.01297824700204
  C   -2.83493856969606      4.90994677610940     -0.00912185647327
  C   -3.55696125868217      3.70745266136599     -0.01296108853183
  C   -4.98980135295419      3.66996107620111     -0.00485614611649
  C   -5.67324112788506      2.48584483210667     -0.00425024859684
  H   -6.76269777533617     -0.00029373329187      0.00209755129603
  H   -6.76521017841451     -2.48140067905719      0.00670160771630
  H   -5.53132439039059     -4.61835985419791      0.00671393873651
  H   -3.38127661620332     -5.85656542023974      0.00215831011333
  H   -1.23364001346497     -7.09944660335772      0.00349232646383
  H   1.23391595278894     -7.09953675011784      0.00236235674355
  H   3.38158492979685     -5.85640116591848     -0.00063436520275
  H   5.53189818611202     -4.61788676723535      0.00240525853100
  H   6.76543318942501     -2.48078502713175      0.00349844567449
  H   6.76269584213954      0.00054691194352      0.00218821669184
  H   6.76520831638069      2.48165174033671      0.00669853450170
  H   5.53132057329444      4.61861294537486      0.00662878695536
  H   3.38127547462056      5.85681573640635      0.00197807679559
  H   1.23364254408617      7.09969668678551      0.00316444282711
  H   -1.23391634031422      7.09979219191771      0.00201889346320
  H   -3.38158370923749      5.85665493898869     -0.00097819504177
  H   -5.53189522633323      4.61814267878612      0.00206289843440
  H   -6.76543574931780      2.48104412108832      0.00326210037321
  C   -0.00000281566255     -0.00308503749224      3.30910202663820
  O   1.01349517084727      0.58384175160097      3.30966717786472
  O   -1.01349379506981     -0.58997199473480      3.31783722421406
   -  0.00000448834313      0.00013004119018     -0.04305232212192
