76
Coordinates from ORCA-job gbm_co2_hollow_orthogonal_pbe_d3_TZVP
  C   0.71023026995831      1.23026613463201     -0.02295328202634
  C   -0.71032805047164      1.23021013145388     -0.02295320224104
  C   -1.42055722536308     -0.00005602651039     -0.02295419203498
  C   -0.71023031155646     -1.23026614324952     -0.02295327425771
  C   0.71032802180839     -1.23021015276604     -0.02295335405861
  C   1.42055718597374      0.00005602244551     -0.02295435758679
  C   -1.42370217957147      2.46569116826172     -0.01451855452875
  C   -2.84536471765864      2.46444283575880     -0.00904423785470
  C   -3.55705647879897      1.23164706234246     -0.00904955247481
  C   -2.84720713578151     -0.00011230071525     -0.01452583669241
  C   1.42350665646972      2.46580336385393     -0.01451868135721
  C   0.71159462965150      3.69637174772178     -0.00903806591646
  C   -0.71188779325811      3.69631505909805     -0.00903786290293
  C   2.84720708933015      0.00011231946989     -0.01452617178607
  C   3.55695860990698      1.23192713154836     -0.00905033290462
  C   2.84516973220105      2.46466782155923     -0.00904497623466
  C   1.42370221700710     -2.46569116615099     -0.01451886813137
  C   2.84536474104139     -2.46444279408525     -0.00904508876562
  C   3.55705645008409     -1.23164700209438     -0.00905030940826
  C   -1.42350673701364     -2.46580332579049     -0.01451874019927
  C   -0.71159467592025     -3.69637173974238     -0.00903819028401
  C   0.71188730780529     -3.69631504418006     -0.00903820641568
  C   -3.55695866464327     -1.23192709580458     -0.00905002943179
  C   -2.84516979975622     -2.46466779102956     -0.00904492340593
  C   -4.98918126469455      1.22624536762499     -0.00148459098197
  C   -5.66969015421269     -0.00022461812263      0.00125976946651
  C   -4.98908371379030     -1.22663961360325     -0.00148519913470
  C   -5.67307374961423     -2.48626212143528      0.00401850084924
  C   -4.98941779206813     -3.67028374260734      0.00402116037964
  C   -3.55655082577674     -3.70762147829685     -0.00147779860200
  C   -2.83464932166588     -4.91019446980216      0.00126937677943
  C   -1.43223579969826     -4.93398153798800     -0.00147349827814
  C   -0.68336858208914     -6.15614591045500      0.00402566734688
  C   0.68385333444139     -6.15609069859988      0.00402560850694
  C   1.43262582062567     -4.93386945933598     -0.00147346908402
  C   2.83503723111609     -4.90997035241549      0.00126932386077
  C   3.55684491644359     -3.70734150027276     -0.00147789148265
  C   4.98970774163704     -3.66988847502211      0.00402109238127
  C   5.67327099886753     -2.48581286362744      0.00401810003231
  C   4.98918119986877     -1.22624533526018     -0.00148578981321
  C   5.66969012284666      0.00022463081986      0.00125859545434
  C   4.98908364716847      1.22663964271478     -0.00148578256071
  C   5.67307367661667      2.48626215584591      0.00401805495590
  C   4.98941771504906      3.67028377880229      0.00402115444381
  C   3.55655074574530      3.70762149603368     -0.00147777887386
  C   2.83464922022396      4.91019447028303      0.00126964737804
  C   1.43223569577749      4.93398151883399     -0.00147322861699
  C   0.68336848592207      6.15614594097731      0.00402626489907
  C   -0.68385339824605      6.15609075548608      0.00402642181629
  C   -1.43262581288056      4.93386948310493     -0.00147271268997
  C   -2.83503721367567      4.90997031253739      0.00127050144871
  C   -3.55684541515634      3.70734150992607     -0.00147664596723
  C   -4.98970780149440      3.66988845874358      0.00402265215612
  C   -5.67327111002075      2.48581281764001      0.00401980075141
  H   -6.76290876096083     -0.00026745155622      0.00682984885200
  H   -6.76530071204319     -2.48160667924484      0.00878908613037
  H   -5.53142477433603     -4.61854943982625      0.00879373479667
  H   -3.38122904108356     -5.85696618538818      0.00683754627179
  H   -1.23351385781600     -7.09971347804271      0.00879493857512
  H   1.23407357021920     -7.09961494695509      0.00879527747668
  H   3.38169137913381     -5.85669933934627      0.00683752378028
  H   5.53178989295323     -4.61811137711864      0.00879394275240
  H   6.76549753168432     -2.48107170124050      0.00878899779742
  H   6.76290867571173      0.00026745163161      0.00682856623515
  H   6.76530064626563      2.48160672704568      0.00878884916700
  H   5.53142469466288      4.61854948302813      0.00879398494495
  H   3.38122892605074      5.85696620338740      0.00683747174979
  H   1.23351377420916      7.09971350115157      0.00879550094734
  H   -1.23407366774984      7.09961496774918      0.00879622629122
  H   -3.38169147501518      5.85669926705838      0.00683884395790
  H   -5.53179001545597      4.61811134027498      0.00879606480810
  H   -6.76549764322667      2.48107162306612      0.00879067921640
  C   0.00000105068905     -0.00000011524243      4.25698412279306
  O   0.00000103272163     -0.00000008676165      3.08621589653565
  O   0.00000104809507     -0.00000014087099      5.42849416217305
   -  -0.00000001341973     -0.00000000135558     -0.02295428117352
