75
Coordinates from ORCA-job gbm_co2_bridge_parallel_dsd_d3_TZVP
  C   0.70526034332416      1.22685381419583     -0.03375860407024
  C   -0.71002575836606      1.22730634965390     -0.03131782404673
  C   -1.41787862727051      0.00120941272895     -0.03961331159920
  C   -0.70971269075987     -1.22403618448673     -0.02657760946143
  C   0.70507919767296     -1.22368091323990     -0.02950825234579
  C   1.41225778586329      0.00144794381167     -0.02344902269919
  C   -1.42112270594230      2.45774998101279     -0.03134610681492
  C   -2.83645322245945      2.45633671157649     -0.01859711161890
  C   -3.54554844617339      1.22810524735490     -0.02269594566692
  C   -2.83887405108452      0.00172647550961     -0.02273595559213
  C   1.41524430084427      2.45749674264407     -0.01574626980533
  C   0.70635371035149      3.68309887963770     -0.01681306681293
  C   -0.71240318110124      3.68307415682875     -0.01452007329044
  C   2.83291354456211      0.00169953496480     -0.01854341845159
  C   3.54001341409477      1.22811107674051     -0.00653168779836
  C   2.83096368912688      2.45673309761360     -0.01253679842646
  C   1.41520825729593     -2.45392415919758     -0.01147604898715
  C   2.83085975155299     -2.45313297637827     -0.00918819276417
  C   3.54005212391928     -1.22459886969410     -0.00488505417673
  C   -1.42038929625707     -2.45446399355247     -0.02323426922879
  C   -0.71173306857285     -3.67994491743428     -0.00824682096023
  C   0.70681584916762     -3.67964705885737     -0.01100381029037
  C   -3.54572958945545     -1.22482564730082     -0.01956045402651
  C   -2.83619079795117     -2.45337078972766     -0.01199085272222
  C   -4.96958030317151      1.22210711237465     -0.00610994879459
  C   -5.64905704695881      0.00168925943132     -0.00127962719950
  C   -4.97003728847139     -1.21888580716649     -0.00441215218867
  C   -5.65381131476571     -2.47556244201523      0.00327737382533
  C   -4.97351002421923     -3.65383469836047      0.00400547254498
  C   -3.54325856703902     -3.68996245980675     -0.00458126022429
  C   -2.82577399531121     -4.88847076310725      0.00123490519475
  C   -1.42907608234133     -4.91047309392604     -0.00217177857448
  C   -0.68270492670081     -6.13104780456493      0.00775446645116
  C   0.67781845660324     -6.13082448914061      0.00901815139310
  C   1.42408382692166     -4.91013986436735      0.00347866206709
  C   2.82072604506566     -4.88814994621428      0.00761062180825
  C   3.53793122250731     -3.68949546831134      0.00485659702581
  C   4.96818382002152     -3.65349305158182      0.01140353794581
  C   5.64840094565503     -2.47523730474331      0.01116504365279
  C   4.96437327963226     -1.21866445806589      0.00166104016625
  C   5.64371530889196      0.00184582167670      0.00563567660860
  C   4.96434793350412      1.22231726434623      0.00031799079304
  C   5.64823881699358      2.47899716837922      0.00879463029170
  C   4.96806339224295      3.65729767674489      0.00798664801486
  C   3.53779863184317      3.69324896693954      0.00102287655883
  C   2.82029055149272      4.89175463508247      0.00313557804906
  C   1.42360372173443      4.91372759440003     -0.00152041655858
  C   0.67708276846430      6.13423989878685      0.00417467497814
  C   -0.68347532372912      6.13413268011502      0.00300278126588
  C   -1.42979767640057      4.91360970469287     -0.00758272830455
  C   -2.82636080466959      4.89127866129528     -0.00350017549474
  C   -3.54343062087884      3.69257386666104     -0.00974923624235
  C   -4.97356885230460      3.65671330629033      0.00100231457543
  C   -5.65372815581264      2.47852897557693      0.00147778022623
  H   -6.73357956341231      0.00188669677611      0.01002047455993
  H   -6.73705627204536     -2.47218749693046      0.01150474099014
  H   -5.51219568175261     -4.59366504342162      0.01036964013116
  H   -3.36804804021853     -5.82774262961773      0.00772852435009
  H   -1.22721433873019     -7.06751991207470      0.01298231075347
  H   1.22251279825948     -7.06717215488529      0.01743394851355
  H   3.36305544548095     -5.82735599772856      0.01734537769503
  H   5.50683834052470     -4.59332527605164      0.01966295813466
  H   6.73166131380977     -2.47173354122263      0.01707305914145
  H   6.72828156437215      0.00186183678805      0.01222644712067
  H   6.73150239099986      2.47554739651304      0.01483528586462
  H   5.50672992810671      4.59712734361784      0.01553874318261
  H   3.36247702084720      5.83104888037880      0.01281325827641
  H   1.22157467380483      7.07069899308982      0.01290523709965
  H   -1.22809689092895      7.07053744106998      0.00878428021809
  H   -3.36887044990078      5.83039289014619      0.00447287385470
  H   -5.51213511585431      4.59659141256176      0.00853979600075
  H   -6.73694806907994      2.47489674172056      0.01144464923108
  C   -1.00180495952949      0.57662178209168      3.06665639381871
  O   0.00415640821281     -0.00864961894917      3.05841402154522
  O   -2.00761759475838      1.16177105841894      3.08785659002544
