30
Coordinates from ORCA-job gbm_co2_bridge_orthogonal_dsd_d3_TZVP
  C   0.35324755484185      1.84602475184977     -0.00930018520164
  C   -0.35516337188499      0.61413521974657     -0.01611618778469
  C   -1.77621424590571      0.61449477816724     -0.00927339986807
  C   -2.45608596759184      1.83672503214245     -0.00157404331695
  C   -1.75635148569589      3.03694820661576      0.00189451980621
  C   -0.36706595464152      3.04487240011887     -0.00159647064848
  C   0.35516364538851     -0.61413517056069     -0.01611625171372
  C   -0.35324779033755     -1.84602451411546     -0.00930058156888
  C   -1.78448555695489     -1.81635997688136     -0.00531876681925
  C   -2.46431340756428     -0.64082891690924     -0.00532263768311
  C   1.78448543346398      1.81635996067221     -0.00531905174863
  C   2.46431321359278      0.64082896179253     -0.00532217808024
  C   1.77621438791539     -0.61449492790659     -0.00927321738804
  C   2.45608610045325     -1.83672505527581     -0.00157326351356
  C   1.75635133354013     -3.03694819917867      0.00189510462154
  C   0.36706589727745     -3.04487218835694     -0.00159639926788
  H   -3.53917966729543      1.83816353630400      0.00274210667032
  H   -2.29806017814539      3.97363140223434      0.00760829490441
  H   0.17187717893201      3.98435864762083      0.00269841653273
  H   -2.31940178981135     -2.75832130759322     -0.00180651763591
  H   -3.54754409135050     -0.63468323600455     -0.00180790924313
  H   2.31940164797252      2.75832132516090     -0.00180661752987
  H   3.54754391088637      0.63468336809235     -0.00180733324022
  H   3.53917978796000     -1.83816407390720      0.00274313724613
  H   2.29805974314397     -3.97363154490877      0.00760929204578
  H   -0.17187760202633     -3.98435824366230      0.00269800629110
  C   0.00000013854160     -0.00000039768680      4.22968041834730
  O   0.00000042099764     -0.00000056723356      3.06693618221846
  O   0.00000006177062     -0.00000027092209      5.39384675947952
   -  0.00000065252761      0.00000000058545     -0.01611622591126
