29
Coordinates from ORCA-job gbm_co2_top_parallel_dsd_d3_TZVP
  C   0.35442175918594      1.84746724779699     -0.02686846908518
  C   -0.35443728684901      0.61573217572354     -0.03598206866675
  C   -1.77556388862320      0.61591054821487     -0.02484678697678
  C   -2.45495059289009      1.83803368292931     -0.01328878707164
  C   -1.75488896610043      3.03784261810582     -0.00895898870769
  C   -0.36581505011901      3.04599826359422     -0.01524080536363
  C   0.35620423496177     -0.61331667863127     -0.03754499671598
  C   -0.35256908006723     -1.84634691323893     -0.03103957655477
  C   -1.78387165132851     -1.81568365020628     -0.02109532311214
  C   -2.46318594015196     -0.63940067628943     -0.01854642280991
  C   1.78544633920487      1.81712071668466     -0.02272264794516
  C   2.46595077639860      0.64151877049242     -0.02540732684732
  C   1.77842781887575     -0.61421584433883     -0.03320279971381
  C   2.45728804147788     -1.83675940912564     -0.02877651479015
  C   1.75714860530716     -3.03622761243778     -0.02595526465968
  C   0.36831712836395     -3.04461659520661     -0.02661619392595
  H   -3.53790643269704      1.83963485843199     -0.00425551823546
  H   -2.29644537005501      3.97446608592309      0.00161521225630
  H   0.17306817725054      3.98537805349822     -0.00782370622635
  H   -2.31910840262040     -2.75736606575315     -0.01553476866083
  H   -3.54630144244393     -0.63323003980309     -0.00945773845408
  H   2.32049950117384      2.75888982386688     -0.01530029275704
  H   3.54910138109746      0.63555544961236     -0.02142893263620
  H   3.54024805265166     -1.83864377832898     -0.02341626209902
  H   2.29869348571335     -3.97281383082607     -0.01941408221124
  H   -0.17030856585304     -3.98412740194102     -0.01967821429016
  C   0.34640024480122     -0.62306631785186      3.17158752760959
  O   -0.25388118674679      0.37377929199908      3.17278215562098
  O   0.94659831008167     -1.61977077289453      3.18641859303005
