30
Coordinates from ORCA-job gbm_co2_hollow_parallel_dsd_d3_TZVP
  C   -1.42896473241063      1.22273158838563     -0.04126204868650
  C   -0.70779709325955     -0.00554711585834     -0.03726595858945
  C   -1.41317198851677     -1.24012818348113     -0.02159590666123
  C   -2.81156286917993     -1.22360754881918     -0.01209021545272
  C   -3.50685022580844     -0.02089436608224     -0.01714593892439
  C   -2.82648881067144      1.18993242796209     -0.03157086700471
  C   0.70940800648643      0.00310663991644     -0.03897722886436
  C   1.42979357997149     -1.22273816278994     -0.02262342552422
  C   0.69494756629530     -2.45101891513722     -0.01275886555131
  C   -0.66335811265202     -2.45933443227021     -0.01206105843906
  C   -0.69471185165141      2.44805301754359     -0.04540734747181
  C   0.66635832065325      2.45634117123218     -0.04750811075679
  C   1.41550760898467      1.24009268395234     -0.04126003606925
  C   2.81331140363244      1.22437633385552     -0.03249595603019
  C   3.50841901680611      0.02196046078965     -0.01816440814206
  C   2.82787859113157     -1.18915297270067     -0.01357075754507
  H   -3.34991882268223     -2.16325786346990      0.00089121316852
  H   -4.58875290615186     -0.02751329440380     -0.00775309533482
  H   -3.37593720586754      2.12312662540600     -0.03077374467642
  H   1.24814252990049     -3.38221413710498     -0.00342384151699
  H   -1.20511871775272     -3.39722580428061     -0.00254099443191
  H   -1.24667555446190      3.38009717688401     -0.04736566269249
  H   1.20689104132494      3.39506733588763     -0.04954816211655
  H   3.35131542354508      2.16421806987630     -0.03147853912023
  H   4.59032471753674      0.02854911615613     -0.00901668006743
  H   3.37766814057077     -2.12215916979386     -0.00057357895240
  C   -0.00506872377719      1.24357390755302      3.21814170123442
  O   1.15841639629597      1.24038240207762      3.21799018244735
  O   -1.16848410067827      1.24637566791099      3.23270899546205
   -  -0.00552262761332      1.23281334080297     -0.04149266368999
