29
Coordinates from ORCA-job gbm_co2_top_orthogonal_dsd_d3_TZVP
  C   0.35448651777126      1.84752258694719     -0.01191977063517
  C   -0.35396537469675      0.61513134720026     -0.01763839512934
  C   -1.77545007074105      0.61540563133799     -0.00713068043573
  C   -2.45523986974206      1.83773827882629      0.00051686036618
  C   -1.75547846281941      3.03796493772871      0.00149625546770
  C   -0.36621021005375      3.04620612769229     -0.00420664951194
  C   0.35650117603812     -0.61300754205261     -0.01987634302662
  C   -0.35176920582651     -1.84476976425313     -0.01197738805054
  C   -1.78278666583024     -1.81539487593976     -0.00506431525840
  C   -2.46323812059856     -0.64014387576325     -0.00307916494350
  C   1.78576745429558      1.81781695639875     -0.01248200916078
  C   2.46537473533650      0.64207603953645     -0.01421070444955
  C   1.77739756272817     -0.61310699986940     -0.01633909238005
  C   2.45736684733992     -1.83505292449897     -0.00561390898837
  C   1.75778494232695     -3.03531574967126      0.00165634506226
  C   0.36854269418833     -3.04337152767592     -0.00138095806781
  H   -3.53830603410456      1.83922487358878      0.00690552640807
  H   -2.29727262468762      3.97458813675345      0.00716821892873
  H   0.17249865421483      3.98581493283327     -0.00148228306220
  H   -2.31748092461665     -2.75749901865896     -0.00092018912899
  H   -3.54644312504227     -0.63430299022088      0.00290860691323
  H   2.32069136852992      2.75976156309914     -0.01019338972520
  H   3.54862196657609      0.63597618907385     -0.01353333177615
  H   3.54048315356857     -1.83639152031296     -0.00258728126302
  H   2.29960387157465     -3.97194750951546      0.00989640787180
  H   -0.17029960528501     -3.98292952784068      0.00498471867538
  C   0.34562320752563     -0.62643321594410      4.24089510861577
  O   0.34878774102189     -0.62311522092808      3.07814917612448
  O   0.34299340100804     -0.63070633787098      5.40505563055974
