30
Coordinates from ORCA-job gbm_co2_bridge_parallel_b3lyp_d3_TZVP
  C   0.35421795963297      1.84847306640927     -0.02952730854196
  C   -0.35554466187583      0.61534520888152     -0.03451695463734
  C   -1.77833682337596      0.61520173492925     -0.02937020614078
  C   -2.45617332892365      1.83832612062168     -0.01439817202779
  C   -1.75618588941790      3.03731400713828     -0.00586641968599
  C   -0.36783949922073      3.04600951314952     -0.01459322052015
  C   0.35611318936678     -0.61501488039417     -0.03451524447004
  C   -0.35365131749476     -1.84814681770108     -0.02941669414942
  C   -1.78549885084222     -1.81512043816642     -0.03370887369506
  C   -2.46378710873957     -0.64234764168711     -0.03367316980422
  C   1.78604469334401      1.81543230675705     -0.03397905535618
  C   2.46432885695902      0.64266628196839     -0.03394463294378
  C   1.77890090609581     -0.61487197087093     -0.02947884319262
  C   2.45672193198056     -1.83798162991986     -0.01453439911109
  C   1.75674661719378     -3.03698877532191     -0.00586299188833
  C   0.36841094181567     -3.04570409770271     -0.01445243647370
  H   -3.53942161081351      1.84063198376309     -0.00790217143479
  H   -2.29817367544981      3.97451433700402      0.00724596229142
  H   0.17042210841781      3.98606795521061     -0.00824062206966
  H   -2.32023005025167     -2.75731033714880     -0.02956259518745
  H   -3.54712360369531     -0.63598885662679     -0.02949602559816
  H   2.32077620355941      2.75762370934065     -0.02989541139066
  H   3.54766681184476      0.63630684458559     -0.02983018056291
  H   3.53997132693461     -1.84028996988908     -0.00814141015648
  H   2.29874592735305     -3.97418241944540      0.00725072773862
  H   -0.16985248036247     -3.98576026530604     -0.00799701799749
  C   -0.00253910176903     -0.00147080545657      3.18187386971736
  O   1.00192095226928      0.57810196087663      3.18305155431571
  O   -1.00691752633883     -0.58099681943995      3.19799974479536
   X  0.00028710180376      0.00016077444128     -0.03451647182245
