30
Coordinates from ORCA-job gbm_co2_hollow_orthogonal_b3lyp_d3_TZVP
  C   -1.42302541124603      1.23299805253283     -0.01627289729991
  C   -0.70819333448584     -0.00064797897699     -0.01517690946675
  C   -1.42143981238790     -1.23142521748210     -0.00609770830264
  C   -2.81981106372399     -1.20654426578686      0.00011804167756
  C   -3.50819335018637     -0.00085504122713     -0.00172672492155
  C   -2.82120466925620      1.20557513629044     -0.00956976513203
  C   0.70837067990145      0.00037778317930     -0.01673261789624
  C   1.42339304686503     -1.22937530258441     -0.00781082586256
  C   0.67964973719568     -2.45365559729284     -0.00216012672847
  C   -0.67592968614025     -2.45463301244125     -0.00122220123350
  C   -0.68056446172439      2.45309756587900     -0.01513833605563
  C   0.67722364964661      2.45408504069419     -0.01665341736780
  C   1.42143174606096      1.23505433861194     -0.01559404122916
  C   2.81964610930053      1.20963943392424     -0.00873721341609
  C   3.50837016860317      0.00419314494524     -0.00188906251720
  C   2.82172671051989     -1.20248747024006     -0.00151828198834
  H   -3.36388781351411     -2.14339926311873      0.00675817002664
  H   -4.59095617966455     -0.00152737216385      0.00307509854132
  H   -3.36663564425231      2.14171014912162     -0.00975439250149
  H   1.22846361162644     -3.38796699264486      0.00243848619254
  H   -1.22339018995656     -3.38973499256862      0.00396322556070
  H   -1.22796747691835      3.38823197894414     -0.01270390708643
  H   1.22327013443245      3.39001151413591     -0.01406654235010
  H   3.36372646523613      2.14655951621054     -0.00799625257595
  H   4.59113148182572      0.00507783650691      0.00323135920695
  H   3.36714947035422     -2.13856289151409      0.00459965157561
  C   -0.00084083719868      1.23053755221820      4.25684057091757
  O   -0.00056737976672      1.23301473227483      3.09803122737813
  O   -0.00111650746049      1.23119999056383      5.41769906500357
   X  0.00017073631446      1.23545168200866     -0.01593234214879
