30
Coordinates from ORCA-job gbm_co2_bridge_orthogonal_b3lyp_d3_TZVP
  C   0.35309052668839      1.84752895307678     -0.01606181733628
  C   -0.35546209891272      0.61460378078753     -0.02435392934132
  C   -1.77747769172536      0.61538051001011     -0.01606475000807
  C   -2.45598777149849      1.83823682060817     -0.00623522709582
  C   -1.75670711307596      3.03758246519615     -0.00179090704088
  C   -0.36841423097463      3.04552407854948     -0.00623505825369
  C   0.35546212895902     -0.61460383806823     -0.02435379680388
  C   -0.35309051140840     -1.84752900110157     -0.01606176927381
  C   -1.78517072031962     -1.81523447941219     -0.01195269147698
  C   -2.46370302570652     -0.64199409905162     -0.01195430345104
  C   1.78517073444991      1.81523444704941     -0.01195242452287
  C   2.46370304994272      0.64199407315548     -0.01195381230720
  C   1.77747772389458     -0.61538054037016     -0.01606432236976
  C   2.45598779473819     -1.83823685444169     -0.00623457333884
  C   1.75670713387365     -3.03758249803694     -0.00179032138709
  C   0.36841425080604     -3.04552412459243     -0.00623476926466
  H   -3.53939155783783      1.84031179303310     -0.00063675513852
  H   -2.29876516053260      3.97486586753949      0.00582276774036
  H   0.17013586636293      3.98559419696715     -0.00063616542354
  H   -2.31992432156820     -2.75768679715708     -0.00737952494806
  H   -3.54727802964015     -0.63548657082875     -0.00738174978565
  H   2.31992432509255      2.75768676969149     -0.00737920778413
  H   3.54727805516606      0.63548654573339     -0.00738102214808
  H   3.53939158067914     -1.84031183431718     -0.00063588182559
  H   2.29876518755655     -3.97486589618402      0.00582349918063
  H   -0.17013583309657     -3.98559425076283     -0.00063592668121
  C   0.00000004419581      0.00000018894805      4.27736912175457
  O   -0.00000013741173      0.00000014808974      3.11854758510647
  O   -0.00000024285356      0.00000028829029      5.43815289404915
   X  0.00000004415679     -0.00000006240113     -0.02435383082423
