29
Coordinates from ORCA-job gbm_co2_top_orthogonal_b3lyp_d3_TZVP
  C   0.35433900926937      1.84957884152749     -0.01840545902578
  C   -0.35422149331112      0.61616897616894     -0.02348496419112
  C   -1.77663743884331      0.61677777560831     -0.01279484296536
  C   -2.45513108962743      1.83973388322420     -0.00378492905227
  C   -1.75588002296248      3.03912510403894     -0.00271582454830
  C   -0.36758130084418      3.04741627389765     -0.00932258141812
  C   0.35679995762683     -0.61292428240745     -0.02689107295519
  C   -0.35151743542818     -1.84578116118760     -0.01799235774416
  C   -1.78341117622916     -1.81382303939601     -0.01078941702526
  C   -2.46251970685097     -0.64085014552949     -0.00813604468684
  C   1.78648782575162      1.81725950427229     -0.01919565422306
  C   2.46478271198171      0.64381228464413     -0.02152223064299
  C   1.77866997638556     -0.61344288961232     -0.02316461385497
  C   2.45731589358694     -1.83600871360762     -0.01308947646366
  C   1.75827549724940     -3.03540454609012     -0.00527354652389
  C   0.37003678347714     -3.04350633375623     -0.00810336314916
  H   -3.53851524876701      1.84178943111055      0.00329849621962
  H   -2.29805377747115      3.97633678143265      0.00408415811383
  H   0.17070955440088      3.98763394297526     -0.00653739565294
  H   -2.31792257179891     -2.75641876701900     -0.00566481301912
  H   -3.54607392361685     -0.63465903532917     -0.00143329389172
  H   2.32128574928247      2.75967923678155     -0.01681547459525
  H   3.54837402881201      0.63729964442696     -0.02045075712069
  H   3.54073712318598     -1.83787707630611     -0.00980234799628
  H   2.30047809388592     -3.97261409768641      0.00282441954761
  H   -0.16839869461619     -3.98364099044656     -0.00091762995787
  C   0.34521160915701     -0.63102568682083      4.29137775873381
  O   0.34851428953825     -0.62647287496287      3.13255403897105
  O   0.34243079677585     -0.63641998995115      5.45215033911805
