48
Coordinates from ORCA-job gbm_co2_bridge_orthogonal_pbe_d3_TZVP
  C   2.85918077847160      2.44947526793320     -0.00477753825691
  C   1.42599839869426      2.45367842153726     -0.01288153850371
  C   0.71211157246477      3.69636867645307     -0.01051205121664
  C   1.44615083676495      4.90137259781709     -0.00107332950993
  C   2.83988833990434      4.88822404334682      0.00604640542231
  C   3.54205988216623      3.68416012120567      0.00438669247238
  C   0.71328747142474      1.22691602175280     -0.02183922376159
  C   -0.71245139228416      1.22894460674074     -0.02998857000241
  C   -1.42212082735397      2.48308172903327     -0.02421274049544
  C   -0.70824154121800      3.67174995472699     -0.01585130422353
  C   3.54203679905780      1.20368222263378     -0.00578165378952
  C   2.86359629347584     -0.00562287636405     -0.01212725934899
  C   1.42213802088671     -0.01063150136588     -0.01908976083180
  C   0.71359217688564     -1.23053158572705     -0.02090522753498
  C   -0.71258774973725     -1.22798158995703     -0.02237512765106
  C   -1.42069292352820      0.00946438712713     -0.02862234646323
  C   -2.86169452032322      0.00452578319894     -0.02151491940134
  C   -3.54526878710419      1.27200292217869     -0.01996024984482
  C   -2.86177371723427      2.44881091384243     -0.02156550767896
  C   -1.42505414878939     -2.45488264628527     -0.01365323761547
  C   -2.85818696350702     -2.45047578393905     -0.00902968861441
  C   -3.54051643833438     -1.20450405556022     -0.01252426806620
  C   3.54685187631978     -1.27347175840794     -0.01066219841483
  C   2.86326798419166     -2.45038909712725     -0.01233688627068
  C   1.42345638103221     -2.48510005037821     -0.01518079867412
  C   0.70916657335833     -3.67358912973442     -0.01014986393776
  C   -0.71129574403669     -3.69770538699550     -0.00790320502016
  C   -1.44543899716203     -4.90261491173779      0.00089684247459
  C   -2.83921924012904     -4.88925394335652      0.00477481159877
  C   -3.54119965778881     -3.68512253499435      0.00020338783206
  H   0.90485466697111      5.84967236502354      0.00047435466430
  H   3.38794508858657      5.83191795920002      0.01303065882701
  H   4.63394858288597      3.68393204211606      0.01019945876798
  H   -1.24922394926376      4.62171477801359     -0.01144495981399
  H   4.63521283145363      1.20474530991345     -0.00049955396402
  H   -4.63757180966363      1.26673592532112     -0.01646480057294
  H   -3.39843995888593      3.40020306449561     -0.01924978783217
  H   -4.63371689068173     -1.20523342082786     -0.00700873111912
  H   4.63913272172834     -1.26848041481393     -0.00740381943680
  H   3.40014023393412     -3.40163835961294     -0.01029579978467
  H   1.24987935178427     -4.62368077492347     -0.00602308715949
  H   -0.90425211081386     -5.85095768947563      0.00483085692053
  H   -3.38739514363453     -5.83288061617824      0.01153805222753
  H   -4.63310925307524     -3.68477447349155      0.00350786373119
  C   -1.07892596127456      0.62768565454254      4.34371668822091
  O   -1.07684979369282      0.62513786378714      3.17311613546646
  O   -1.08198997772308      0.63080892813829      5.51548694096315
  X -1.06982293520306      0.61738498117489     -0.02929217477753
