91
Coordinates from ORCA-job gbm_co2_bridge_parallel_wB97x_d3_TZVP
  C   -5.70240744873541      4.89126501863593      0.00624247019550
  C   -5.02341870376679      6.07972054065043      0.01140875887551
  C   -3.62212901442405      6.09863893085381      0.00858286408976
  C   -2.88397123040332      4.92283396409849     -0.00019837449677
  C   -1.41609250501738      4.92006820436187     -0.00143075328755
  C   -0.68588837008506      6.10846647331922      0.00772148113729
  C   0.69084764787518      6.10828232496833      0.00699072729652
  C   1.41976226413655      4.91932775597868     -0.00245747212826
  C   2.88772584458545      4.92031548623631     -0.00306642321877
  C   3.62881758890754      6.09425438811581      0.00024256799124
  C   5.03032575385620      6.07597286283623      0.00134718728253
  C   5.70880050076751      4.88739685138181     -0.00042838451233
  C   -5.67128610609639      2.43876343078987     -0.00567355021157
  C   -4.99478027206418      3.66447641569482     -0.00267773887918
  C   -3.56841976783565      3.68398162249081     -0.00703245487299
  C   -2.84996313444829      2.44821199245126     -0.01753924332766
  C   -1.41913271225754      2.44757672779706     -0.02040807197063
  C   -0.70885439571126      3.70104025979270     -0.01110534322279
  C   0.71159198727002      3.70086145578187     -0.01091950713280
  C   1.42065588910509      2.44695595506083     -0.01719475594442
  C   2.85158195655089      2.44655921052184     -0.01239359066834
  C   3.57208367749467      3.68114521556523     -0.00655361791912
  C   4.99872336973974      3.66216207476843     -0.00437771519907
  C   5.67424406527349      2.43575382398974     -0.00572897304772
  C   -5.66666873981709     -0.00007107939302     -0.00914503257004
  C   -4.98838260177375      1.22416012583257     -0.01222213403099
  C   -3.54417475149577      1.23266615940607     -0.02027600448461
  C   -2.83648551362438     -0.00025772801494     -0.02401398217557
  C   -1.42416794129793     -0.00090752176292     -0.02908202911456
  C   -0.72013913025551      1.23900480070356     -0.02822870911163
  C   0.72182977120045      1.23862431713798     -0.02544147298101
  C   1.42486593653217     -0.00096517319906     -0.02405983328236
  C   2.83654544288302     -0.00089682805747     -0.01754058636088
  C   3.54475724462735      1.23088869259724     -0.01353275129546
  C   4.98835592755858      1.22281404705483     -0.00924348940957
  C   5.66743187299182     -0.00105138080741     -0.00834790798314
  C   -5.67189169627820     -2.43926158872261     -0.00271776551428
  C   -4.98900427691933     -1.22448351777700     -0.00958686857003
  C   -3.54452604687744     -1.23314874361910     -0.01581047710813
  C   -2.85006041135330     -2.44910252173215     -0.01209208812662
  C   -1.41891624983555     -2.44859137510274     -0.01558754753680
  C   -0.72020562063989     -1.24034256147982     -0.02424876927963
  C   0.72135113851552     -1.24013643725552     -0.02271018753159
  C   1.42017837819452     -2.44841960776175     -0.01555503586169
  C   2.85100172979008     -2.44814731339004     -0.01222628564944
  C   3.54454711780896     -1.23267538467532     -0.01340085191465
  C   4.98812332716089     -1.22475442144623     -0.00949731119930
  C   5.67390975321490     -2.43774728884555     -0.00649798906898
  C   -5.70315546702115     -4.89196066694673      0.00734478903948
  C   -4.99543866487711     -3.66511593010053      0.00011186447967
  C   -3.56895345835527     -3.68501119484597     -0.00360169154073
  C   -2.88438440908122     -4.92392021315951      0.00085879508334
  C   -1.41636938008884     -4.92120376988619     -0.00130144660693
  C   -0.70907137924893     -3.70228141649161     -0.00890047591156
  C   0.71121922697712     -3.70224271036854     -0.00987036869051
  C   1.41915817515638     -4.92078425283506     -0.00386412717729
  C   2.88708800399999     -4.92187732388024     -0.00467485819110
  C   3.57150422783931     -3.68279121269830     -0.00744038004092
  C   4.99815341339215     -3.66404088088365     -0.00560638811508
  C   5.70817766776439     -4.88927793924671     -0.00246574466666
  C   -5.02412427501275     -6.08039340455871      0.01075857989929
  C   -3.62279576195507     -6.09960217275466      0.00767216575947
  C   -0.68644538588112     -6.10980615462605      0.00499343950484
  C   0.69026146610905     -6.10978217351566      0.00361885695456
  C   3.62813870260702     -6.09587431199787     -0.00211262675655
  C   5.02961813354596     -6.07782309794211     -0.00117561571656
  H   -5.56688767000948      7.01835815782594      0.01838106455973
  H   -3.12602779461348      7.05923127523717      0.01363314397884
  H   -1.19527250835065      7.06211228840945      0.01603949685916
  H   1.20026503789176      7.06205287330835      0.01502926146095
  H   3.13318883208111      7.05516381988192      0.00152879394566
  H   5.57339770023970      7.01472677236477      0.00388360489499
  H   -6.78706958404060      4.86930267831461      0.00942905040269
  H   -6.75673718106308      2.43494846392870     -0.00024600101160
  H   -6.75199469859032      0.00018512015966     -0.00326401175043
  H   -6.75735450088424     -2.43543528060697      0.00139819664165
  H   -6.78781891467280     -4.86999781562528      0.01004659490516
  H   -5.56768884475713     -7.01899848023708      0.01608619573131
  H   -3.12683048346707     -7.06026076728664      0.01068074729061
  H   -1.19594747532668     -7.06341811084716      0.01153181789203
  H   1.19959418666034     -7.06361041025039      0.00943458117404
  H   3.13237940911237     -7.05671528919352     -0.00097333579644
  H   5.57258286129891     -7.01663796271883      0.00087209007899
  H   6.79278154732658     -4.86608692330045     -0.00117839201792
  H   6.75942825159885     -2.43243793130042     -0.00416592597664
  H   6.75290330590663     -0.00114341793821     -0.00541653436533
  H   6.75976031538270      2.43029743702269     -0.00324320685577
  H   6.79340129569487      4.86415452429106      0.00096897933127
  C   -1.11486158718334      0.63591500226726      3.12402551078155
  O   -0.08119215334911      0.11068884364301      3.11122098946100
  O   -2.14767872778291      1.16110730355750      3.15203154441031
