39
Coordinates from ORCA-job gbm_co2_top_parallel_dsd_d3_TZVP
  C   0.71237381192500      1.23409641076854     -0.01935401670228
  C   -0.70881045390365      1.23392390716071     -0.03145628972132
  C   -1.41866243199450      0.00341117967994     -0.01691574109182
  C   -0.70800197847777     -1.22654380218641     -0.01567191908377
  C   0.71251232800266     -1.22678892827686     -0.01678417155045
  C   1.42302774537613      0.00335659032251     -0.03141083576957
  C   -1.41596690167762      2.46007537070461     -0.02368372486790
  C   -2.83407984598323      2.43150700334677     -0.01823467076611
  C   -3.51798348048752      1.24587953704394     -0.01114528901123
  C   -2.83369753227513      0.00352022756136     -0.01135654416145
  C   1.42005394169875      2.46006418669460     -0.03306891309371
  C   0.68697984896218      3.67348107734162     -0.03003169074718
  C   -0.68167355639876      3.67365086990038     -0.02653118782709
  C   2.83849921005989      0.00427685195516     -0.02375044187436
  C   3.52211873883215      1.24709840003541     -0.02685940571336
  C   2.83744322526238      2.43216663379898     -0.03028321526539
  C   1.42034674615568     -2.45207188524896     -0.01119228015811
  C   2.83839575982579     -2.42323604339442     -0.01103393572262
  C   3.52302012583386     -1.23801602265846     -0.01825392761864
  C   -1.41538685541212     -2.45202281410942      0.00029462488218
  C   -0.68172266037335     -3.66569372735898      0.00639011326040
  C   0.68696909911816     -3.66583752869243      0.00166396478296
  C   -3.51795365195435     -1.23859954357159      0.00148871053298
  C   -2.83329094903921     -2.42374015672406      0.00628843611403
  H   -3.37300143674730      3.37112205498186     -0.01647120813331
  H   -4.60117563725505      1.24258917205433     -0.00575470642686
  H   1.23164351440290      4.60961748058239     -0.03063137146710
  H   -1.22581086976486      4.61025296850415     -0.02198923730365
  H   4.60530786214835      1.24433951522897     -0.02244699884358
  H   3.37567207890958      3.37201535605040     -0.03096198213930
  H   3.37732488337996     -3.36284838096394     -0.00562109943497
  H   4.60621081881050     -1.23473207245128     -0.01657199604256
  H   -1.22606650582726     -4.60211161695823      0.01730991439242
  H   1.23135622619010     -4.60227198414341      0.00731957941840
  H   -4.60112439040388     -1.23552815497378      0.00710882822401
  H   -3.37191950648444     -3.36345671378173      0.01720908567522
  C   0.68529927678064      1.18730984529978      3.16071860711969
  O   1.27783482595052      2.18846981180932      3.18049282815368
  O   0.09265557683482      0.18589292466821      3.15117910798170
