40
Coordinates from ORCA-job gbm_co2_bridge_parallel_dsd_d3_TZVP
  C   0.71027283281107      1.22998580406958     -0.01328646845260
  C   -0.71071159934811      1.23036663313452     -0.02229250624045
  C   -1.42139575002674     -0.00082163208251     -0.01858129610709
  C   -0.71038324668122     -1.23117306627303     -0.01958737235153
  C   0.71017064490272     -1.23056574214882     -0.01312915080540
  C   1.42029930497617     -0.00040721274248     -0.02200562036794
  C   -1.41944077752350      2.45582836375963     -0.01595987908616
  C   -2.83699385088728      2.42701160476885     -0.02438422313930
  C   -3.52102347836866      1.24199685534228     -0.02744798713254
  C   -2.83703206699285      0.00002067962591     -0.02452749492649
  C   1.41745440415798      2.45586291037897     -0.00813252846423
  C   0.68313998279343      3.66930171799024     -0.00046767594112
  C   -0.68577827170290      3.66947963748423     -0.00631437777506
  C   2.83522786378769     -0.00014199591843     -0.01234546236501
  C   3.51949892002005      1.24213668892350     -0.00755851989320
  C   2.83543607546656      2.42760808318854     -0.00335247498965
  C   1.41758955436173     -2.45599802913021     -0.00932556963688
  C   2.83548966152039     -2.42754983889879     -0.00631661317637
  C   3.51973865625819     -1.24219468181732     -0.00953961303309
  C   -1.41827229822640     -2.45660141205174     -0.00717607915799
  C   -0.68464202082182     -3.67036219254837     -0.00043048267874
  C   0.68405138053347     -3.66980928458560     -0.00044427890364
  C   -3.52109859476171     -1.24227393863193     -0.01528153881569
  C   -2.83633049785752     -2.42759836308981     -0.00741161508571
  H   -3.37587464965736      3.36652929061417     -0.02099590312723
  H   -4.60411551731978      1.23875330803581     -0.02893936359259
  H   1.22725665861085      4.60592398609516      0.00707046730864
  H   -1.23026320305051      4.60582296254453     -0.00123167616880
  H   4.60268214560742      1.23889678145534     -0.00268439375390
  H   3.37423769325434      3.36727340782750      0.00196657684455
  H   3.37434790558251     -3.36718457603972     -0.00207681020439
  H   4.60291445221107     -1.23889512723606     -0.00513247665214
  H   -1.22886093185656     -4.60688515100688      0.00710834205910
  H   1.22860824754222     -4.60615798762785      0.00501621282347
  H   -4.60425092688573     -1.23912896036707     -0.01583325452512
  H   -3.37528029461632     -3.36719841742774      0.00080876152299
  C   -1.06266627653650      0.62131187786748      3.11765736944124
  O   -0.05489901152321      0.03935068241817      3.11779033603469
  O   -2.07019646611743      1.20308378925818      3.13520255099412
   -  -1.06644665363574      0.61404854484176     -0.02043191047874
