40
Coordinates from ORCA-job gbm_co2_bridge_orthogonal_dsd_d3_TZVP
  C   0.71077494382172      1.23136863615425     -0.01553321828442
  C   -0.70947735095023      1.23105473926765     -0.01357137762717
  C   -1.41961088126729      0.00125271196301     -0.01983344542897
  C   -0.70992853179268     -1.22889915033674     -0.00725866344497
  C   0.71095330215212     -1.22946523691007     -0.01087870985907
  C   1.42146178799062      0.00102185568219     -0.00786860955258
  C   -1.41659093438709      2.45635636179862     -0.00694524797272
  C   -2.83447529052542      2.42849998560208      0.00297072497844
  C   -3.51890172167684      1.24326782742892      0.00227223979681
  C   -2.83425655678587      0.00130062676726     -0.00477806470620
  C   1.41878958088549      2.45686086898306     -0.00486764092987
  C   0.68544043936350      3.67078155767297     -0.00045831853010
  C   -0.68335914338246      3.67027090874549      0.00065755940936
  C   2.83678945024255      0.00080403680982     -0.00630116694027
  C   3.52130103543980      1.24299104159517     -0.00263171319074
  C   2.83681603051985      2.42833255647085     -0.00247075624271
  C   1.41855465765139     -2.45517250255372     -0.00033240747071
  C   2.83659622888661     -2.42685175143454      0.00106508062137
  C   3.52107048122154     -1.24152198462109     -0.00068280624253
  C   -1.41745737195883     -2.45469637709017     -0.00156072181548
  C   -0.68394697098165     -3.66858244067236      0.00594872864917
  C   0.68483269663050     -3.66894162567626      0.00450263014548
  C   -3.51917838238287     -1.24051431171810      0.00201466117395
  C   -2.83540915324453     -2.42629168503388      0.00466879724296
  H   -3.37309986218390      3.36837970281023      0.00910236662323
  H   -4.60215978923913      1.23996208426070      0.01061200545755
  H   1.22981180907219      4.60729934271010      0.00509304924673
  H   -1.22800327886499      4.60667486022114      0.00565669969219
  H   4.60452906037457      1.23977682341442     -0.00079084897165
  H   3.37568069717300      3.36803700626966      0.00199909753268
  H   3.37536418817630     -3.36658709649213      0.00622128704559
  H   4.60430041533984     -1.23841689437737      0.00106403614644
  H   -1.22848147455252     -4.60501150277317      0.01075620873935
  H   1.22907674827202     -4.60551267345150      0.01005046759904
  H   -4.60243946784476     -1.23685310896195      0.00889590317111
  H   -3.37443853903748     -3.36589915363144      0.00991204505647
  C   -1.08106567462037      0.60556554455154      4.20632098502668
  O   -1.07683369320856      0.60901169903345      3.04337314773606
  O   -1.08662968261842      0.60283102179022      5.37029138288293
   -  -1.06394480170768      0.61714969573170     -0.01669738676343
