35
Coordinates from ORCA-job gbm_co2_top_parallel_wB97x_d3_TZVP
  C   3.55909910159362     -1.22643310382750     -0.04286526202168
  C   2.87655500042262     -2.40694200795843     -0.01268895717400
  C   1.46906674636335     -2.41123368855232      0.00261968771887
  C   0.73846059131474     -1.24415098560196     -0.01408663981884
  C   -0.74274981507238     -1.24417852162780     -0.01291692651421
  C   -1.47105549073496     -2.41226085303162     -0.01283392194213
  C   -2.87829028201345     -2.40936419670044     -0.01250486274089
  C   -3.56162936991195     -1.22865896689602     -0.01344735219936
  C   2.85626578478056      0.00262640471683     -0.04808296007825
  C   1.43696280647880      0.00238425263593     -0.03133566438824
  C   0.73791388659100      1.24862874414002     -0.01818581579006
  C   -0.74329848005428      1.24798909713120     -0.01488025336817
  C   -1.44074227071791      0.00175127738585     -0.01647429642123
  C   -2.85964316725614      0.00142174929383     -0.01523683752380
  C   1.46799377161191      2.41609996143102     -0.00705472070222
  C   -1.47215579346491      2.41573442349769     -0.01484151799089
  H   3.41061289931036     -3.35074149800424      0.00010951268782
  H   0.96724722563306     -3.36932391043521      0.02510977896666
  H   -0.96843409613651     -3.37024373337018     -0.01432524586069
  H   -3.41171979958434     -3.35363320478973     -0.01161461895212
  H   4.64376008624666     -1.20826681079052     -0.05124994839995
  H   -4.64656712183853     -1.21152581188789     -0.01245226790516
  C   3.55856646965136      1.23199498182149     -0.04764328311596
  C   -3.56219603347300      1.23117604176437     -0.01413178892614
  C   2.87545636547882      2.41235330989691     -0.02262594136176
  C   -2.87938678455287      2.41218996451539     -0.01381762647136
  H   4.64324015048178      1.21428396462594     -0.05610564989304
  H   3.40910929605582      3.35643657180079     -0.01409233044593
  H   0.96576504929146      3.37405674162882      0.01136397971410
  H   -0.96999234286805      3.37395347870093     -0.01683526397992
  H   -3.41324413055675      3.35621755692470     -0.01303858967219
  H   -4.64712552170020      1.21354944756710     -0.01297418551352
  C   1.45354545616534     -0.02218356395351      3.17856790638651
  O   2.61254551646123     -0.03250070853144      3.17250147130249
  O   0.29435729600373     -0.01173140351998      3.19807039239528
