36
Coordinates from ORCA-job gbm_co2_hollow_parallel_wB97x_d3_TZVP
  C   3.55505601986718     -1.24599885235793      0.04600313750449
  C   2.86595194127576     -2.42297892118299      0.09500569701572
  C   1.45917411336049     -2.42186235772521      0.06344341848535
  C   0.73652032460371     -1.25238100122367     -0.01542082538869
  C   -0.74334164400364     -1.24714481424798     -0.07173662508457
  C   -1.47510465944051     -2.41035862495951     -0.14015204437653
  C   -2.88242724280541     -2.40142004424052     -0.14488727051177
  C   -3.56208264875570     -1.22054834057696     -0.07559937292567
  C   2.85909164861722     -0.01436885105106     -0.01890532633218
  C   1.44004557614138     -0.00930238396744     -0.03447067148309
  C   0.74640747666551      1.23894296278779     -0.06500041643621
  C   -0.73321470974052      1.24385509347595     -0.00747416634630
  C   -1.43691173464752      0.00090447883514     -0.03518101111185
  C   -2.85594787023239      0.00607801713972     -0.01928287019868
  C   1.47795294042238      2.40248833320142     -0.12850302835198
  C   -1.45568859961694      2.41275849626335      0.08082721415970
  H   3.39524741717083     -3.36767628976196      0.15501245105239
  H   0.95049968380165     -3.37566700487962      0.10676671719307
  H   -0.97471338491910     -3.36827172140651     -0.18925603512238
  H   -3.41937224936420     -3.34226168027909     -0.19635217429416
  H   4.63995287898201     -1.23345134266102      0.06098311606035
  H   -4.64690373432186     -1.20040337833503     -0.06635909199074
  C   3.56504323962789      1.21266751323180     -0.06843070566822
  C   -3.55173438671769      1.23733563894295      0.05408229414149
  C   2.88524868739348      2.39376305465233     -0.13257054757806
  C   -2.86247375496369      2.41381909599661      0.11223617198957
  H   4.64986812320597      1.19262408726731     -0.05905999261800
  H   3.42210534899885      3.33488925642405     -0.17956271805781
  H   0.97736679325115      3.36048655811079     -0.17367927707550
  H   -0.94674088021362      3.36600740948790      0.13227833895044
  H   -3.39165154481447      3.35808714619188      0.17958915640593
  H   -4.63663093742370      1.22482017337094      0.06900063120313
  C   -0.01265809635742      0.04614986043774      3.22978080160334
  O   0.53238191987975      1.06904172851781      3.21400081940128
  O   -0.55743735802409     -0.97668271531987      3.25742349473495
   -  -0.01278669690274     -0.00408958015913     -0.03455028894881
