36
Coordinates from ORCA-job gbm_co2_hollow_orthogonal_wB97x_d3_TZVP
  C   3.56035104687003     -1.23003091149811      0.00376654800052
  C   2.87680719475529     -2.41066704911286      0.00248804281972
  C   1.46941882443170     -2.41365834950131     -0.00256042874071
  C   0.74054013487591     -1.24581717358450     -0.00662976110052
  C   -0.74056442319190     -1.24579741628340     -0.00662829220547
  C   -1.46947462775045     -2.41361886873787     -0.00255943014477
  C   -2.87686291169231     -2.41058910033836      0.00248912479446
  C   -3.56037458976425     -1.22993435677971      0.00377049086810
  C   2.85784108282020     -0.00005070731088     -0.00024864771941
  C   1.43891502738786     -0.00003041154012     -0.00662462143589
  C   0.74057693542522      1.24577084395998     -0.00661872996884
  C   -0.74053304763094      1.24579050525216     -0.00661722116628
  C   -1.43890520289821      0.00000835904409     -0.00662341468725
  C   -2.85783122478431      0.00002678481598     -0.00024422691731
  C   1.46948540163966      2.41359383406735     -0.00254146437435
  C   -1.46940985097697      2.41363326340453     -0.00253488004647
  H   3.41024953901728     -3.35501576925245      0.00518996387679
  H   0.96704378240158     -3.37176821579988     -0.00255293025369
  H   -0.96712559922244     -3.37174236784911     -0.00255347529096
  H   -3.41033109541839     -3.35492323969138      0.00518909281757
  H   4.64532320433339     -1.21276218712376      0.00782218619316
  H   -4.64534627600681     -1.21263617912308      0.00782692119290
  C   3.56038489780769      1.22990949102894      0.00377587965430
  C   -3.56034162688844      1.23000604175028      0.00378394945179
  C   2.87687311783375      2.41056476294609      0.00250587115604
  C   -2.87679761678560      2.41064265671661      0.00251526348090
  H   4.64535658533647      1.21261105275409      0.00783088379906
  H   3.41034131398561      3.35489887378118      0.00521369061992
  H   0.96713522918157      3.37171668129814     -0.00252763523840
  H   -0.96703359405748      3.37174243696893     -0.00251825752486
  H   -3.41023997227294      3.35499135584821      0.00522652464509
  H   -4.64531377154749      1.21273710454092      0.00784091756871
  C   -0.00001731348654      0.00005706479579      4.19601609446423
  O   -0.00001833542669      0.00006263935318      3.03783343854200
  O   -0.00001682764420      0.00005159039904      5.35612407519940
   -  -0.00002041065686      0.00007796080127     -0.00662354232948
