30
Coordinates from ORCA-job gbm_co2_bridge_parallel_dsd_d3_TZVP
  C   0.35458452103853      1.84705622025380     -0.02241365820642
  C   -0.35516888141115      0.61491273705101     -0.02591087690609
  C   -1.77711484898131      0.61417542724755     -0.02203575313491
  C   -2.45625920548339      1.83677241617457     -0.00977624636982
  C   -1.75579390450961      3.03664994330703     -0.00253450935095
  C   -0.36644703638318      3.04542475507660     -0.01011714619333
  C   0.35587331645305     -0.61450365029421     -0.02572923460059
  C   -0.35389048196837     -1.84664473975057     -0.02170050263188
  C   -1.78482716573916     -1.81636842588732     -0.02710339072380
  C   -2.46447518917134     -0.64122186963168     -0.02733814286852
  C   1.78551559336514      1.81676843669507     -0.02838050620255
  C   2.46516711706306      0.64161819664471     -0.02859502192258
  C   1.77781667168647     -0.61377810757709     -0.02274610624526
  C   2.45695887455165     -1.83636866022500     -0.01047312165858
  C   1.75649309657886     -3.03624502142828     -0.00252471307255
  C   0.36714576159648     -3.04501850894383     -0.00937842608784
  H   -3.53921529730889      1.83849185425009     -0.00505017591247
  H   -2.29747989862137      3.97325185421431      0.00809574294799
  H   0.17212465223387      3.98496807461183     -0.00568268732581
  H   -2.31967561691861     -2.75813129848688     -0.02531634605878
  H   -3.54749997084236     -0.63515924219711     -0.02569386345960
  H   2.32036954198781      2.75853021349469     -0.02703037955931
  H   3.54819351567278      0.63556140433229     -0.02746702680080
  H   3.53991739538615     -1.83809358453331     -0.00632974971271
  H   2.29818185958090     -3.97284541542890      0.00810070315860
  H   -0.17143010563455     -3.98455692069706     -0.00445980367225
  C   -0.00310161466656     -0.00179487681307      3.13899149854898
  O   1.00569034360176      0.57791354298539      3.14667645108849
  O   -1.01188772180366     -0.58149700480016      3.14771788172814
   -  0.00023667864699      0.00013525035555     -0.02579088879480
