76
Coordinates from ORCA-job gbm_co2_hollow_orthogonal_wB97x_d3_TZVP
  C   0.70454080427375      1.22040053269686     -0.02156644030262
  C   -0.70463745238717      1.22034545038215     -0.02155624091533
  C   -1.40916567639899     -0.00006298196350     -0.02139712924744
  C   -0.70454019160938     -1.22041588884194     -0.02156988511189
  C   0.70463778776237     -1.22036080392212     -0.02156049618557
  C   1.40916615188222      0.00004807422816     -0.02139795400297
  C   -1.42079439023244      2.46065184583141     -0.01278428394230
  C   -2.83104664265176      2.45988895856680     -0.00704222027660
  C   -3.54595602221703      1.22150987759424     -0.00693949718377
  C   -2.84139503131858     -0.00011995372157     -0.01257415921984
  C   1.42059990718201      2.46076376038214     -0.01279827824816
  C   0.71482131182448      3.68169068276769     -0.00722419548523
  C   -0.71511217776348      3.68163439063548     -0.00721739260090
  C   2.84139551086301      0.00010466876992     -0.01257575129246
  C   3.54585982993237      1.22179022331603     -0.00695170152243
  C   2.83085227249396      2.46011265267017     -0.00706047059262
  C   1.42079486417294     -2.46066730899737     -0.01279499346142
  C   2.83104713940640     -2.45990439556002     -0.00705475625691
  C   3.54595647247519     -1.22152527732371     -0.00694702904857
  C   -1.42059943480933     -2.46077921931340     -0.01280733308575
  C   -0.71482084246826     -3.68170611290042     -0.00724000156863
  C   0.71511264641624     -3.68164981443534     -0.00723394752716
  C   -3.54585933804032     -1.22180562721483     -0.00695525553795
  C   -2.83085182050459     -2.46012809443116     -0.00706978977773
  C   -4.96309785201483      1.21686645955087      0.00110160240710
  C   -5.64308015134937     -0.00023090522283      0.00416024213559
  C   -4.96300151886598     -1.21727444278348      0.00108551461378
  C   -5.65233890684416     -2.48459511852803      0.00688938347901
  C   -4.97759864219313     -3.65316561431404      0.00679484947590
  C   -3.53539175715534     -3.68972313010039      0.00088387615357
  C   -2.82134559682407     -4.88715391479855      0.00379537730426
  C   -1.42731075140690     -4.90671534524722      0.00071384761608
  C   -0.67444850078943     -6.13736013692965      0.00646866675142
  C   0.67493440362896     -6.13730693095234      0.00647352459793
  C   1.42769941806663     -4.90660266476506      0.00072425066323
  C   2.82173270515042     -4.88693086564364      0.00381419431469
  C   3.53568428700440     -3.68944366462980      0.00090351997302
  C   4.97788822634244     -3.65277198276016      0.00681745712414
  C   5.65253593858793     -2.48414803053545      0.00690641555080
  C   4.96309828121200     -1.21688193680402      0.00109319644834
  C   5.64308061870811      0.00021543714461      0.00415747055768
  C   4.96300202149201      1.21725896259849      0.00108880461742
  C   5.65233937268625      2.48457962927047      0.00689889039878
  C   4.97759908271195      3.65315010862500      0.00681026410992
  C   3.53539219680482      3.68970766134330      0.00089950542932
  C   2.82134605679895      4.88713840629021      0.00381715453194
  C   1.42731118942346      4.90669986288329      0.00073599815388
  C   0.67444898242076      6.13734464774223      0.00649787435697
  C   -0.67493394058478      6.13729144068184      0.00650364573083
  C   -1.42769891641662      4.90658719072863      0.00074820990699
  C   -2.82173222538262      4.88691537394237      0.00383927346211
  C   -3.53568377848707      3.68942820839593      0.00092301070500
  C   -4.97788772602617      3.65275648924397      0.00683778109662
  C   -5.65253546810639      2.48413255603313      0.00692135351786
  H   -6.72928923005656     -0.00027396148217      0.01013885268925
  H   -6.73767774852762     -2.47712721961098      0.01183946766335
  H   -5.51372268609263     -4.59687523301607      0.01167059031094
  H   -3.36441976645607     -5.82785663870660      0.00970334528672
  H   -1.22358734578096     -7.07355628353751      0.01131802339579
  H   1.22414706018916     -7.07345974829818      0.01132671803070
  H   3.36488122576156     -5.82759063959220      0.00972589829520
  H   5.51408703886764     -4.59643909142244      0.01169895724617
  H   6.73787417943702     -2.47659417995860      0.01185784551646
  H   6.72928970866669      0.00025838850821      0.01013572264977
  H   6.73767820261825      2.47711171495479      0.01184867381506
  H   5.51372309095326      4.59685971083383      0.01169047975742
  H   3.36442019846174      5.82784110997197      0.00973002936867
  H   1.22358784895928      7.07354076709794      0.01135214417597
  H   -1.22414660848543      7.07344423590834      0.01136243741223
  H   -3.36488070786882      5.82757513270273      0.00975636778652
  H   -5.51408649373270      4.59642358502692      0.01172405991895
  H   -6.73787369717652      2.47657868954504      0.01187321231863
  C   -0.00000277650536      0.00018925153470      4.19890703150156
  O   -0.00000187518264      0.00013471070438      3.04020704128426
  O   -0.00000365176041      0.00024376776660      5.35855810536111
   -  -0.00000369316476     -0.00000645860606     -0.02139795657466
