76
Coordinates from ORCA-job gbm_co2_bridge_orthogonal_wB97x_d3_TZVP
  C   0.70430271992601      1.22053395166354     -0.02332048456000
  C   -0.70467711605003      1.22023139604122     -0.02985412523083
  C   -1.40905015863198      0.00013872140780     -0.03032959954747
  C   -0.70472684714395     -1.22016723959933     -0.02456715752868
  C   0.70480542671903     -1.22051412187771     -0.01899156605176
  C   1.40945320668867      0.00007566997322     -0.01834794215169
  C   -1.42049321598487      2.46036717646258     -0.02138767034670
  C   -2.83058713056039      2.45966285775456     -0.01303702815391
  C   -3.54546252536752      1.22134963316991     -0.01204537664397
  C   -2.84094449180868     -0.00012158587569     -0.02007099898819
  C   1.42079423047282      2.46087303247883     -0.01536369709194
  C   0.71500863961108      3.68165203093679     -0.01209671986819
  C   -0.71493157454059      3.68131966253398     -0.01365471981614
  C   2.84192771434367      0.00004463030629     -0.01063022200790
  C   3.54622650229216      1.22176348680179     -0.00709894909325
  C   2.83104798636362      2.46007153633051     -0.00856018480093
  C   1.42115727145155     -2.46099898351522     -0.01168235786143
  C   2.83135292100922     -2.46005360836654     -0.00629623378101
  C   3.54629372415383     -1.22163178736691     -0.00577378810170
  C   -1.42054424776924     -2.46089521102688     -0.01632213285960
  C   -0.71464137115716     -3.68175444340757     -0.01006709506724
  C   0.71536395389202     -3.68185773193578     -0.00885915215302
  C   -3.54543820666820     -1.22168470922104     -0.01190471267719
  C   -2.83066912776104     -2.46015469364407     -0.01160664878618
  C   -4.96257004596223      1.21677583287060     -0.00057326638732
  C   -5.64268559297279     -0.00027528690332      0.00345160641716
  C   -4.96259589469982     -1.21725702578243     -0.00125759810780
  C   -5.65198763467852     -2.48456300173498      0.00543109182665
  C   -4.97739102771807     -3.65320288247540      0.00413523337086
  C   -3.53519442041053     -3.68977497994255     -0.00298915029069
  C   -2.82115674784748     -4.88716903401290     -0.00016871434017
  C   -1.42709175524185     -4.90675736980707     -0.00308102586276
  C   -0.67424544813003     -6.13739423438405      0.00200023179310
  C   0.67514294858406     -6.13743552626664      0.00215332307592
  C   1.42794041864823     -4.90677699700700     -0.00212553588581
  C   2.82200837994075     -4.88706160799114      0.00135541787535
  C   3.53597736221582     -3.68961071040742     -0.00014098738649
  C   4.97818852442944     -3.65288699166037      0.00520280737803
  C   5.65283178873788     -2.48427823259762      0.00567637918415
  C   4.96344199915913     -1.21697425009039      0.00085669320912
  C   5.64338382130739      0.00011920339538      0.00322256590090
  C   4.96333115838933      1.21721897632945      0.00001696026654
  C   5.65261422887318      2.48454241884332      0.00469673936215
  C   4.97779501289009      3.65307365159159      0.00412607585719
  C   3.53560486341069      3.68962785919306     -0.00171217776265
  C   2.82152793946121      4.88707816853017      0.00012854214979
  C   1.42753090733535      4.90666227715180     -0.00381515388808
  C   0.67466649291603      6.13730114338707      0.00175609699031
  C   -0.67470632890802      6.13709683969574      0.00202975803083
  C   -1.42743233198262      4.90635069379088     -0.00419785767797
  C   -2.82141794418798      4.88672960342116      0.00028326031782
  C   -3.53526444328558      3.68914792155082     -0.00246707015293
  C   -4.97744286068541      3.65259517294106      0.00658549154544
  C   -5.65209477222092      2.48396935388021      0.00755375832072
  H   -6.72888967354423     -0.00027880136825      0.01151572957687
  H   -6.73732750557236     -2.47702960922508      0.01180230827422
  H   -5.51358953591564     -4.59686937437682      0.00941955035224
  H   -3.36422026841329     -5.82787956363167      0.00569836458984
  H   -1.22339618939014     -7.07358810039716      0.00602810017424
  H   1.22427339517298     -7.07363631616130      0.00627791657758
  H   3.36515059335379     -5.82772611731408      0.00627143383481
  H   5.51442539821074     -4.59653356990496      0.00915568529187
  H   6.73817030942066     -2.47677474553087      0.01000929199598
  H   6.72959305573568      0.00016574526080      0.00845076994723
  H   6.73795221244871      2.47716695455726      0.00929877321440
  H   5.51391482277094      4.59678987881874      0.00828382919530
  H   3.36461759525746      5.82777453286480      0.00583977203399
  H   1.22373281639522      7.07354031155034      0.00673809644185
  H   -1.22397632753517      7.07322352081845      0.00731548727439
  H   -3.36459534483407      5.82737246721554      0.00760619505705
  H   -5.51361640986264      4.59627809365530      0.01317072175044
  H   -6.73742931071667      2.47639489674582      0.01488926153443
  C   -1.07495557443049      0.61906810077534      4.26510335467479
  O   -1.07011001857254      0.61673446652940      3.10630811514821
  O   -1.07997477857326      0.62150752601477      5.42467416943342
   -  -1.05678414225244      0.61026804757037     -0.03009085833357
