15
Coordinates from ORCA-job gbm_co2_top_parallel_dsd_d3_TZVP
  C   0.69263334905209      1.19987968817262     -0.06526245712223
  C   -0.69894010606469      1.20006749693513     -0.05843161495749
  C   -1.39380174668951     -0.00467686293167     -0.03047187600479
  C   -0.69766986152518     -1.20874026426748     -0.01494335216988
  C   0.69314634093473     -1.20930384866428     -0.03040681762398
  C   1.38881894198049     -0.00502749388359     -0.05836364302720
  H   1.23338471514236      2.13669910263654     -0.08669470090893
  H   -1.23941257470096      2.13727370751108     -0.07260983523160
  H   -2.47549711778867     -0.00519714821667     -0.02096065114030
  H   -1.23827906606669     -2.14531147271760      0.00980198740196
  H   1.23372645939602     -2.14623353626636     -0.02084302656558
  H   2.47070010714112     -0.00427653372386     -0.07249030304853
  C   0.70849142462191      1.22753499441728      3.16456650803243
  O   1.29050929002935      2.23592951263944      3.15307465677965
  O   0.12783596453761      0.22150452835940      3.20399481558645
