45
Coordinates from ORCA-job gbm_co2_bridge_parallel_pbe_d3_TZVP
  C   -3.71178568770664     -3.57012604660002     -0.01456303283589
  C   -4.90094834290712     -2.87722325440420     -0.01348542530659
  C   -4.90638088627905     -1.47014644234182     -0.01807158511912
  C   -3.72668706609263     -0.72690943777110     -0.02439708823546
  C   -3.72078561232039      0.73899672667176     -0.02408681035959
  C   -4.89445518375578      1.49170080772103     -0.01693347097641
  C   -4.87770662977790      2.89868876621878     -0.01215268435274
  C   -3.68301135545228      3.58200637219351     -0.01384259881217
  C   -1.25325587927166     -3.55597934859428     -0.01804932028308
  C   -2.47447883740334     -2.87029419882864     -0.02059980328991
  C   -2.47625532844808     -1.42842588762718     -0.02737675603697
  C   -1.24187685284433     -0.72734501421018     -0.03145650633781
  C   -1.23604799835696      0.71944529186767     -0.03158289964673
  C   -2.46474683541218      1.43043418804231     -0.02730551850478
  C   -2.45137294616534      2.87224669540873     -0.02048004732343
  C   -1.22467201310927      3.54808102481530     -0.01848570373151
  C   1.20508326678933     -3.58990297795060     -0.01332713544880
  C   -0.02655412530617     -2.88014363965054     -0.02006001055875
  C   -0.01317956838306     -1.43833372412265     -0.02702238841766
  C   1.24285669298381     -0.74689433272721     -0.02384801563768
  C   1.24875720755423      0.71901305995646     -0.02431475021792
  C   -0.00167050987549      1.42052783269533     -0.02750943871224
  C   -0.00344808194371      2.86239337255594     -0.02089298831045
  C   1.23385583830436      3.56222932158159     -0.01482913567776
  C   2.39977965465434     -2.90658532953813     -0.01170692819566
  C   2.41652864134483     -1.49959826466205     -0.01663301260277
  C   2.42845063766190      1.46225097599012     -0.01793665714898
  C   2.42301886495006      2.86932784774326     -0.01353331735770
  H   -5.85054436952917     -3.41467240688124     -0.00805271036445
  H   -5.86961475983169     -0.96155958661568     -0.01431884370187
  H   -5.86173493399580      0.99085820408154     -0.01257476860393
  H   -5.82294572828983      3.44375768471283     -0.00610276853931
  H   -3.69689611695190     -4.66170948571281     -0.00983499881808
  H   -3.65934009001921      4.67343479511232     -0.00906843732488
  H   -1.25765441397500     -4.64873579203377     -0.01241759956457
  H   -1.22027323913510      4.64083794471732     -0.01296108790072
  H   1.18141144059598     -4.68133091139968     -0.00844259736075
  H   1.21896334238009      4.65381326239744     -0.01023418304295
  H   3.34501886098040     -3.45165374649874     -0.00560808513967
  H   3.38380914933047     -0.99875555966986     -0.01236887733124
  H   3.39168465090249      0.95366520456618     -0.01398343888977
  H   3.37261452651310      3.40677726612944     -0.00805963037527
  C   -1.24118914604776     -0.00163700432852      3.23127863267231
  O   -0.06998493331560     -0.00158295975009      3.23846668976701
  O   -2.41239230304296     -0.00168729325986      3.23871973395668
