15
Coordinates from ORCA-job gbm_co2_top_orthogonal_pbe_d3_TZVP
  C   0.68988438428941      1.19507759528709     -0.09532462004735
  C   -0.70494073789630      1.19515016802753     -0.08353508638749
  C   -1.40263895790825     -0.01294590860091     -0.05978716079154
  C   -0.70496165865573     -1.22141369362714     -0.04815898594076
  C   0.69044073996689     -1.22111013854150     -0.05972960221006
  C   1.38759550022505     -0.01270113912252     -0.08349406827098
  H   1.23231199369894      2.13480300497796     -0.10992032527402
  H   -1.24759468716707      2.13494204004415     -0.09219093424469
  H   -2.48790096261361     -0.01303001323387     -0.05142617926279
  H   -1.24743500283868     -2.16121931561312     -0.03038817774399
  H   1.23318646650019     -2.16090780789913     -0.05130649899750
  H   2.47280653684368     -0.01254107447709     -0.09209331030095
  C   0.72798461701921      1.26155106084364      4.48537840457242
  O   0.71865734313002      1.24517586081402      3.32231310942403
  O   0.73825052540624      1.27929124112088      5.64962312547569
