39
Coordinates from ORCA-job gbm_co2_bridge_parallel_wB97X_d3_TZVP
  C   0.71104293697204      1.23662492169390     -0.02409781651090
  C   -0.71550417055897      1.23715338047118     -0.03160666518938
  C   -1.42908311249210      0.00130322776974     -0.03159783716799
  C   -0.71542315463796     -1.23389626343721     -0.02379452134751
  C   0.71067021131924     -1.23344617572232     -0.01971018515893
  C   1.42362562753914      0.00135293917640     -0.01992183888938
  C   -1.41852316736998      2.45324145799596     -0.02892615141268
  C   -2.84208741831767      2.42657949868485     -0.03200170124026
  C   -3.52239851857611      1.24833155396014     -0.03224367784032
  C   -2.83376335210144      0.00214718842616     -0.02922071462986
  C   1.41282347896454      2.45293908811774     -0.01356532050153
  C   0.67750974358176      3.67261043848367     -0.01087300144904
  C   -0.68369180968276      3.67302367283528     -0.01829341985448
  C   2.82762255361769      0.00151365803033     -0.00818379303770
  C   3.51674861897084      1.24781363016603     -0.00125989887849
  C   2.83670645384535      2.42670892230697     -0.00317695613938
  C   1.41245403235504     -2.44945763611584     -0.00775192492448
  C   2.83619194748126     -2.42326516620951      0.00037811259017
  C   3.51673487944509     -1.24460756170149      0.00015890568045
  C   -1.41795548766427     -2.44979043021849     -0.01310327195915
  C   -0.68335395484028     -3.66982519967984     -0.00241322245002
  C   0.67762453367918     -3.66937183118208     -0.00049578798236
  C   -3.52276503348737     -1.24407556781853     -0.01855025374129
  C   -2.84188056353010     -2.42274302852513     -0.01070130220623
  H   -3.37923931344740      3.36957455603749     -0.02814198016396
  H   -4.60763004125775      1.24207642830720     -0.02857732712668
  H   1.22548335228462      4.60951883345346     -0.00181749505546
  H   -1.23185739670311      4.60974992410663     -0.01490367493546
  H   4.60210177320433      1.24134404517677      0.00769482932439
  H   3.37400990663746      3.36976104995804      0.00405298528037
  H   3.37335867529112     -3.36638542971410      0.00890654224631
  H   4.60208598909611     -1.23830664397262      0.00851886055049
  H   -1.23146076705676     -4.60663814434268      0.00499425637409
  H   1.22586017286136     -4.60610431764243      0.00865320960580
  H   -4.60807486834879     -1.23765466531190     -0.01534097175148
  H   -3.37934329037923     -3.36571900301770     -0.00152973256769
  C   -1.03588893804700      0.59673682953665      3.14579246964488
  O   -0.02730424347161      0.02612438150012      3.11485535541953
  O   -2.04396028517552      1.16705943841716      3.19433991739561
