15
Coordinates from ORCA-job gbm_co2_bridge_parallel_wB97X_d3_TZVP
  C   0.70073658116144      1.20042875503800     -0.03949477884554
  C   -0.68878692902384      1.20059436474588     -0.05138169440809
  C   -1.38413229399376     -0.00398159159316     -0.05137835703769
  C   -0.68904378995544     -1.20714837332051     -0.03943642030905
  C   0.70076988476857     -1.20640177706359     -0.02669576300680
  C   1.39518056774894     -0.00344607515824     -0.02673592255384
  H   1.24329534317641      2.13982629597920     -0.03929026317948
  H   -1.23271795184171      2.13920792429784     -0.06101062661464
  H   -2.46896128584822     -0.00238198822270     -0.06093880110317
  H   -1.23116015642314     -2.14680126312440     -0.03919676396832
  H   1.24321917297249     -2.14557940423168     -0.01320672189038
  H   2.47975709731583     -0.00347511648733     -0.01327367457213
  C   -1.07328688280760      0.61961661917459      3.16662051738690
  O   -0.07016761470983      0.04111750878648      3.18193091681167
  O   -2.07850551064271      1.19932564016126      3.16487127559530
