15
Coordinates from ORCA-job gbm_co2_bridge_orthogonal_wB97X_d3_TZVP
  C   0.70440828176520      1.19791610087389     -0.07301442522447
  C   -0.68484128395006      1.19745836545234     -0.09128186651310
  C   -1.37938121780826     -0.00576060716439     -0.09140826271695
  C   -0.68494476373870     -1.20898316408659     -0.07284951887992
  C   0.70479546732957     -1.20906553224651     -0.05384681612025
  C   1.39956810067679     -0.00547452189840     -0.05484122956762
  H   1.24674413114597      2.13753357786734     -0.07303145358320
  H   -1.22745857054293      2.13667769312295     -0.10441324247824
  H   -2.46407753037234     -0.00563696230667     -0.10455636152829
  H   -1.22734850072410     -2.14856177875343     -0.07244973899625
  H   1.24721082563252     -2.14855327171904     -0.03970243184796
  H   2.48440219555527     -0.00529167385843     -0.04116712354568
  C   -1.09190857472073      0.63001517229827      4.52079746457502
  O   -1.07742275500239      0.62182696993423      3.36231637928349
  O   -1.10793256071590      0.63919786568454      5.68079551985095
